taskid: 0 hostname: r500c01n02
Quilting with   6 groups of  12 I/O tasks.
 Ntasks in X           24 , ntasks in Y           61
Setting blank km_opt entries to domain #1 values.
 --> The km_opt entry in the namelist.input is now max_domains.
Setting blank diff_opt entries to domain #1 values.
 --> The diff_opt entry in the namelist.input is now max_domains.
--- WARNING: traj_opt is zero, but num_traj is not zero; setting num_traj to zero.
--- NOTE: sst_update is 0, setting io_form_auxinput4 = 0 and auxinput4_interval = 0 for all domains
--- NOTE: sst_update is 0, setting io_form_auxinput4 = 0 and auxinput4_interval = 0 for all domains
--- NOTE: sst_update is 0, setting io_form_auxinput4 = 0 and auxinput4_interval = 0 for all domains
--- NOTE: grid_fdda is 0 for domain      1, setting gfdda interval and ending time to 0 for that domain.
--- NOTE: both grid_sfdda and pxlsm_soil_nudge are 0 for domain      1, setting sgfdda interval and ending time to 0 for that domain.
--- NOTE: obs_nudge_opt is 0 for domain      1, setting obs nudging interval and ending time to 0 for that domain.
--- NOTE: grid_fdda is 0 for domain      2, setting gfdda interval and ending time to 0 for that domain.
--- NOTE: both grid_sfdda and pxlsm_soil_nudge are 0 for domain      2, setting sgfdda interval and ending time to 0 for that domain.
--- NOTE: obs_nudge_opt is 0 for domain      2, setting obs nudging interval and ending time to 0 for that domain.
--- NOTE: grid_fdda is 0 for domain      3, setting gfdda interval and ending time to 0 for that domain.
--- NOTE: both grid_sfdda and pxlsm_soil_nudge are 0 for domain      3, setting sgfdda interval and ending time to 0 for that domain.
--- NOTE: obs_nudge_opt is 0 for domain      3, setting obs nudging interval and ending time to 0 for that domain.
--- NOTE: bl_pbl_physics /= 4, implies mfshconv must be 0, resetting
Need MYNN PBL for icloud_bl = 1, resetting to 0
--- WARNING: If use_adaptive_time_step, must use cudt=0 for the following CU schemes:
---          BMJ, all SAS, Tiedtke
---          CUDT=0 has been done for you.
*************************************
No physics suite selected.
Physics options will be used directly from the namelist.
*************************************
--- NOTE: RRTMG radiation is in use, setting:  levsiz=59, alevsiz=12, no_src_types=6
--- NOTE: num_soil_layers has been set to      6
WRF V3.9.1.1 MODEL
 *************************************
 Parent domain
 ids,ide,jds,jde            1         250           1         250
 ims,ime,jms,jme           -4          18          -4          12
 ips,ipe,jps,jpe            1          11           1           5
 *************************************
DYNAMICS OPTION: Eulerian Mass Coordinate
   alloc_space_field: domain            1 ,               14934588  bytes allocated
  med_initialdata_input: calling input_input
Timing for processing wrfinput file (stream 0) for domain        1:    0.75215 elapsed seconds
Max map factor in domain 1 =  1.34. Scale the dt in the model accordingly.
INPUT LandUse = "MODIFIED_IGBP_MODIS_NOAH"
 LANDUSE TYPE = "MODIFIED_IGBP_MODIS_NOAH" FOUND          33  CATEGORIES           2  SEASONS WATER CATEGORY =           17  SNOW CATEGORY =           15
INITIALIZE THREE LSM RELATED TABLES
 RUCLSMINIT uses MODI-RUC
 INPUT VEGPARM FOR MODI-RUC
 VEGPARM FOR USGS     FOUND          27  CATEGORIES
 Skipping USGS     table
 VEGPARM FOR MODIFIED FOUND          20  CATEGORIES
 Skipping MODIFIED table
 VEGPARM FOR NLCD40   FOUND          40  CATEGORIES
 Skipping NLCD40   table
 VEGPARM FOR USGS-RUC FOUND          28  CATEGORIES
 Skipping USGS-RUC table
 VEGPARM FOR MODI-RUC FOUND          21  CATEGORIES
 Found MODI-RUC table
 Reading MODI-RUC table
 INPUT SOIL TEXTURE CLASSIFICATION = STAS-RUC
 SOIL TEXTURE CLASSIFICATION = STAS-RUC FOUND          19  CATEGORIES
 *************************************
 Nesting domain
 ids,ide,jds,jde            1         451           1         400
 ims,ime,jms,jme           -4          30          -4          18
 ips,ipe,jps,jpe            1          19           1           7
 INTERMEDIATE domain
 ids,ide,jds,jde           75         230          30         168
 ims,ime,jms,jme           70          92          25          43
 ips,ipe,jps,jpe           73          82          28          33
 *************************************
d01 2021-08-04_00:00:00  alloc_space_field: domain            2 ,                5403068  bytes allocated
d01 2021-08-04_00:00:00  alloc_space_field: domain            2 ,               28649712  bytes allocated
d01 2021-08-04_00:00:00 *** Initializing nest domain # 2 from an input file. ***
d01 2021-08-04_00:00:00 med_initialdata_input: calling input_input
Timing for processing wrfinput file (stream 0) for domain        2:    2.56190 elapsed seconds
INPUT LandUse = "MODIFIED_IGBP_MODIS_NOAH"
 LANDUSE TYPE = "MODIFIED_IGBP_MODIS_NOAH" FOUND          33  CATEGORIES           2  SEASONS WATER CATEGORY =           17  SNOW CATEGORY =           15
INITIALIZE THREE LSM RELATED TABLES
 RUCLSMINIT uses MODI-RUC
 INPUT VEGPARM FOR MODI-RUC
 VEGPARM FOR USGS     FOUND          27  CATEGORIES
 Skipping USGS     table
 VEGPARM FOR MODIFIED FOUND          20  CATEGORIES
 Skipping MODIFIED table
 VEGPARM FOR NLCD40   FOUND          40  CATEGORIES
 Skipping NLCD40   table
 VEGPARM FOR USGS-RUC FOUND          28  CATEGORIES
 Skipping USGS-RUC table
 VEGPARM FOR MODI-RUC FOUND          21  CATEGORIES
 Found MODI-RUC table
 Reading MODI-RUC table
 INPUT SOIL TEXTURE CLASSIFICATION = STAS-RUC
 SOIL TEXTURE CLASSIFICATION = STAS-RUC FOUND          19  CATEGORIES
INPUT LandUse = "MODIFIED_IGBP_MODIS_NOAH"
 LANDUSE TYPE = "MODIFIED_IGBP_MODIS_NOAH" FOUND          33  CATEGORIES           2  SEASONS WATER CATEGORY =           17  SNOW CATEGORY =           15
INITIALIZE THREE LSM RELATED TABLES
 RUCLSMINIT uses MODI-RUC
 INPUT VEGPARM FOR MODI-RUC
 VEGPARM FOR USGS     FOUND          27  CATEGORIES
 Skipping USGS     table
 VEGPARM FOR MODIFIED FOUND          20  CATEGORIES
 Skipping MODIFIED table
 VEGPARM FOR NLCD40   FOUND          40  CATEGORIES
 Skipping NLCD40   table
 VEGPARM FOR USGS-RUC FOUND          28  CATEGORIES
 Skipping USGS-RUC table
 VEGPARM FOR MODI-RUC FOUND          21  CATEGORIES
 Found MODI-RUC table
 Reading MODI-RUC table
 INPUT SOIL TEXTURE CLASSIFICATION = STAS-RUC
 SOIL TEXTURE CLASSIFICATION = STAS-RUC FOUND          19  CATEGORIES
Max map factor in domain 1 =  1.34. Scale the dt in the model accordingly.
INPUT LandUse = "MODIFIED_IGBP_MODIS_NOAH"
 LANDUSE TYPE = "MODIFIED_IGBP_MODIS_NOAH" FOUND          33  CATEGORIES           2  SEASONS WATER CATEGORY =           17  SNOW CATEGORY =           15
INITIALIZE THREE LSM RELATED TABLES
 RUCLSMINIT uses MODI-RUC
 INPUT VEGPARM FOR MODI-RUC
 VEGPARM FOR USGS     FOUND          27  CATEGORIES
 Skipping USGS     table
 VEGPARM FOR MODIFIED FOUND          20  CATEGORIES
 Skipping MODIFIED table
 VEGPARM FOR NLCD40   FOUND          40  CATEGORIES
 Skipping NLCD40   table
 VEGPARM FOR USGS-RUC FOUND          28  CATEGORIES
 Skipping USGS-RUC table
 VEGPARM FOR MODI-RUC FOUND          21  CATEGORIES
 Found MODI-RUC table
 Reading MODI-RUC table
 INPUT SOIL TEXTURE CLASSIFICATION = STAS-RUC
 SOIL TEXTURE CLASSIFICATION = STAS-RUC FOUND          19  CATEGORIES
Timing for Writing wrfout_d01_2021-08-04_00:00:00 for domain        1:    0.47585 elapsed seconds
Timing for Writing auxhist2_d01_2021-08-04_00:00:00 for domain        1:    0.00002 elapsed seconds
Timing for Writing auxhist23_d01_2021-08-04_00:00:00 for domain        1:    4.45118 elapsed seconds
Timing for processing lateral boundary for domain        1:    5.01907 elapsed seconds
 Tile Strategy is not specified. Assuming 1D-Y
WRF TILE   1 IS      1 IE     11 JS      1 JE      5
WRF NUMBER OF TILES =   1
 *************************************
 Nesting domain
 ids,ide,jds,jde            1         943           1         883
 ims,ime,jms,jme           -4          51          -4          27
 ips,ipe,jps,jpe            1          40           1          15
 INTERMEDIATE domain
 ids,ide,jds,jde           51         370          51         350
 ims,ime,jms,jme           46          75          46          67
 ips,ipe,jps,jpe           49          65          49          57
 *************************************
d02 2021-08-04_00:00:00  alloc_space_field: domain            3 ,                8160240  bytes allocated
d02 2021-08-04_00:00:00  alloc_space_field: domain            3 ,               60645304  bytes allocated
d02 2021-08-04_00:00:00 *** Initializing nest domain # 3 from an input file. ***
d02 2021-08-04_00:00:00 med_initialdata_input: calling input_input
Timing for processing wrfinput file (stream 0) for domain        3:   15.88353 elapsed seconds
INPUT LandUse = "MODIFIED_IGBP_MODIS_NOAH"
 LANDUSE TYPE = "MODIFIED_IGBP_MODIS_NOAH" FOUND          33  CATEGORIES           2  SEASONS WATER CATEGORY =           17  SNOW CATEGORY =           15
INITIALIZE THREE LSM RELATED TABLES
 RUCLSMINIT uses MODI-RUC
 INPUT VEGPARM FOR MODI-RUC
 VEGPARM FOR USGS     FOUND          27  CATEGORIES
 Skipping USGS     table
 VEGPARM FOR MODIFIED FOUND          20  CATEGORIES
 Skipping MODIFIED table
 VEGPARM FOR NLCD40   FOUND          40  CATEGORIES
 Skipping NLCD40   table
 VEGPARM FOR USGS-RUC FOUND          28  CATEGORIES
 Skipping USGS-RUC table
 VEGPARM FOR MODI-RUC FOUND          21  CATEGORIES
 Found MODI-RUC table
 Reading MODI-RUC table
 INPUT SOIL TEXTURE CLASSIFICATION = STAS-RUC
 SOIL TEXTURE CLASSIFICATION = STAS-RUC FOUND          19  CATEGORIES
INPUT LandUse = "MODIFIED_IGBP_MODIS_NOAH"
 LANDUSE TYPE = "MODIFIED_IGBP_MODIS_NOAH" FOUND          33  CATEGORIES           2  SEASONS WATER CATEGORY =           17  SNOW CATEGORY =           15
INITIALIZE THREE LSM RELATED TABLES
 RUCLSMINIT uses MODI-RUC
 INPUT VEGPARM FOR MODI-RUC
 VEGPARM FOR USGS     FOUND          27  CATEGORIES
 Skipping USGS     table
 VEGPARM FOR MODIFIED FOUND          20  CATEGORIES
 Skipping MODIFIED table
 VEGPARM FOR NLCD40   FOUND          40  CATEGORIES
 Skipping NLCD40   table
 VEGPARM FOR USGS-RUC FOUND          28  CATEGORIES
 Skipping USGS-RUC table
 VEGPARM FOR MODI-RUC FOUND          21  CATEGORIES
 Found MODI-RUC table
 Reading MODI-RUC table
 INPUT SOIL TEXTURE CLASSIFICATION = STAS-RUC
 SOIL TEXTURE CLASSIFICATION = STAS-RUC FOUND          19  CATEGORIES
INPUT LandUse = "MODIFIED_IGBP_MODIS_NOAH"
 LANDUSE TYPE = "MODIFIED_IGBP_MODIS_NOAH" FOUND          33  CATEGORIES           2  SEASONS WATER CATEGORY =           17  SNOW CATEGORY =           15
INITIALIZE THREE LSM RELATED TABLES
 RUCLSMINIT uses MODI-RUC
 INPUT VEGPARM FOR MODI-RUC
 VEGPARM FOR USGS     FOUND          27  CATEGORIES
 Skipping USGS     table
 VEGPARM FOR MODIFIED FOUND          20  CATEGORIES
 Skipping MODIFIED table
 VEGPARM FOR NLCD40   FOUND          40  CATEGORIES
 Skipping NLCD40   table
 VEGPARM FOR USGS-RUC FOUND          28  CATEGORIES
 Skipping USGS-RUC table
 VEGPARM FOR MODI-RUC FOUND          21  CATEGORIES
 Found MODI-RUC table
 Reading MODI-RUC table
 INPUT SOIL TEXTURE CLASSIFICATION = STAS-RUC
 SOIL TEXTURE CLASSIFICATION = STAS-RUC FOUND          19  CATEGORIES
Timing for Writing wrfout_d02_2021-08-04_00:00:00 for domain        2:   11.96844 elapsed seconds
Timing for Writing auxhist2_d02_2021-08-04_00:00:00 for domain        2:    0.00002 elapsed seconds
Timing for Writing auxhist23_d02_2021-08-04_00:00:00 for domain        2:    0.11257 elapsed seconds
 Tile Strategy is not specified. Assuming 1D-Y
WRF TILE   1 IS      1 IE     19 JS      1 JE      7
WRF NUMBER OF TILES =   1
Timing for Writing wrfout_d03_2021-08-04_00:00:00 for domain        3:    0.92815 elapsed seconds
Timing for Writing auxhist2_d03_2021-08-04_00:00:00 for domain        3:    0.00002 elapsed seconds
Timing for Writing auxhist23_d03_2021-08-04_00:00:00 for domain        3:    0.16548 elapsed seconds
 Tile Strategy is not specified. Assuming 1D-Y
WRF TILE   1 IS      1 IE     40 JS      1 JE     15
WRF NUMBER OF TILES =   1
Timing for main (dt=  4.00): time 2021-08-04_00:00:04 on domain   3:    1.60554 elapsed seconds
Timing for main (dt=  4.00): time 2021-08-04_00:00:08 on domain   3:    0.14796 elapsed seconds
Timing for main (dt=  4.00): time 2021-08-04_00:00:12 on domain   3:    0.15472 elapsed seconds
Timing for main (dt= 12.00): time 2021-08-04_00:00:12 on domain   2:   36.45829 elapsed seconds
Timing for main (dt=  6.00): time 2021-08-04_00:00:18 on domain   3:    1.64662 elapsed seconds
Timing for main (dt=  6.00): time 2021-08-04_00:00:24 on domain   3:    1.48444 elapsed seconds
Timing for main (dt= 12.00): time 2021-08-04_00:00:24 on domain   2:    5.17206 elapsed seconds
Timing for main (dt=  6.00): time 2021-08-04_00:00:30 on domain   3:    1.12998 elapsed seconds
Timing for main (dt=  6.00): time 2021-08-04_00:00:36 on domain   3:    0.62135 elapsed seconds
Timing for main (dt= 12.00): time 2021-08-04_00:00:36 on domain   2:    3.48532 elapsed seconds
Timing for main (dt= 36.00): time 2021-08-04_00:00:36 on domain   1:   59.89820 elapsed seconds
Timing for main (dt=  4.20): time 2021-08-04_00:00:40 on domain   3:    0.40809 elapsed seconds
Timing for main (dt=  4.20): time 2021-08-04_00:00:44 on domain   3:    2.15756 elapsed seconds
Timing for main (dt=  4.20): time 2021-08-04_00:00:48 on domain   3:    1.20234 elapsed seconds
Timing for main (dt= 12.60): time 2021-08-04_00:00:48 on domain   2:    5.57931 elapsed seconds
Timing for main (dt=  4.20): time 2021-08-04_00:00:52 on domain   3:    0.87826 elapsed seconds
Timing for main (dt=  4.20): time 2021-08-04_00:00:57 on domain   3:    1.96926 elapsed seconds
Timing for main (dt=  4.20): time 2021-08-04_00:01:01 on domain   3:    0.15192 elapsed seconds
Timing for main (dt= 12.60): time 2021-08-04_00:01:01 on domain   2:    3.91299 elapsed seconds
Timing for main (dt=  4.20): time 2021-08-04_00:01:05 on domain   3:    0.15760 elapsed seconds
Timing for main (dt=  4.20): time 2021-08-04_00:01:09 on domain   3:    0.14834 elapsed seconds
Timing for main (dt=  4.20): time 2021-08-04_00:01:13 on domain   3:    0.14763 elapsed seconds
Timing for main (dt= 12.60): time 2021-08-04_00:01:13 on domain   2:    0.62047 elapsed seconds
Timing for main (dt= 37.80): time 2021-08-04_00:01:13 on domain   1:   11.03613 elapsed seconds
Timing for main (dt=  4.41): time 2021-08-04_00:01:18 on domain   3:    0.15666 elapsed seconds
Timing for main (dt=  4.41): time 2021-08-04_00:01:22 on domain   3:    0.14677 elapsed seconds
Timing for main (dt=  4.41): time 2021-08-04_00:01:27 on domain   3:    0.14919 elapsed seconds
Timing for main (dt= 13.23): time 2021-08-04_00:01:27 on domain   2:    0.61795 elapsed seconds
Timing for main (dt=  4.41): time 2021-08-04_00:01:31 on domain   3:    0.15825 elapsed seconds
Timing for main (dt=  4.41): time 2021-08-04_00:01:35 on domain   3:    0.14538 elapsed seconds
Timing for main (dt=  4.41): time 2021-08-04_00:01:40 on domain   3:    0.15070 elapsed seconds
Timing for main (dt= 13.23): time 2021-08-04_00:01:40 on domain   2:    0.62471 elapsed seconds
Timing for main (dt=  4.41): time 2021-08-04_00:01:44 on domain   3:    0.15821 elapsed seconds
Timing for main (dt=  4.41): time 2021-08-04_00:01:49 on domain   3:    0.14586 elapsed seconds
Timing for main (dt=  4.41): time 2021-08-04_00:01:53 on domain   3:    0.15003 elapsed seconds
Timing for main (dt= 13.23): time 2021-08-04_00:01:53 on domain   2:    0.62139 elapsed seconds
Timing for main (dt= 39.69): time 2021-08-04_00:01:53 on domain   1:    1.93808 elapsed seconds
Timing for main (dt=  4.63): time 2021-08-04_00:01:58 on domain   3:    0.15651 elapsed seconds
Timing for main (dt=  4.63): time 2021-08-04_00:02:02 on domain   3:    3.28516 elapsed seconds
Timing for main (dt=  4.63): time 2021-08-04_00:02:07 on domain   3:    2.26136 elapsed seconds
Timing for main (dt= 13.89): time 2021-08-04_00:02:07 on domain   2:    7.82657 elapsed seconds
Timing for main (dt=  4.63): time 2021-08-04_00:02:12 on domain   3:    1.74837 elapsed seconds
Timing for main (dt=  4.63): time 2021-08-04_00:02:16 on domain   3:    3.02113 elapsed seconds
Timing for main (dt=  4.63): time 2021-08-04_00:02:21 on domain   3:    2.04398 elapsed seconds
Timing for main (dt= 13.89): time 2021-08-04_00:02:21 on domain   2:   10.45082 elapsed seconds
Timing for main (dt=  4.63): time 2021-08-04_00:02:25 on domain   3:    0.15625 elapsed seconds
Timing for main (dt=  4.63): time 2021-08-04_00:02:30 on domain   3:    0.14750 elapsed seconds
Timing for main (dt=  4.63): time 2021-08-04_00:02:35 on domain   3:    0.14947 elapsed seconds
Timing for main (dt= 13.89): time 2021-08-04_00:02:35 on domain   2:    0.84767 elapsed seconds
Timing for main (dt= 41.67): time 2021-08-04_00:02:35 on domain   1:   19.19900 elapsed seconds
Timing for main (dt=  4.86): time 2021-08-04_00:02:40 on domain   3:    0.15522 elapsed seconds
Timing for main (dt=  4.86): time 2021-08-04_00:02:44 on domain   3:    0.14650 elapsed seconds
Timing for main (dt=  4.86): time 2021-08-04_00:02:49 on domain   3:    0.15483 elapsed seconds
Timing for main (dt= 14.58): time 2021-08-04_00:02:49 on domain   2:    0.62202 elapsed seconds
Timing for main (dt=  4.86): time 2021-08-04_00:02:54 on domain   3:    0.15594 elapsed seconds
Timing for main (dt=  4.86): time 2021-08-04_00:02:59 on domain   3:    0.14600 elapsed seconds
Timing for main (dt=  4.86): time 2021-08-04_00:03:04 on domain   3:    0.15298 elapsed seconds
Timing for main (dt= 14.58): time 2021-08-04_00:03:04 on domain   2:    0.62307 elapsed seconds
Timing for main (dt=  4.86): time 2021-08-04_00:03:09 on domain   3:    0.15721 elapsed seconds
Timing for main (dt=  4.86): time 2021-08-04_00:03:14 on domain   3:    0.14756 elapsed seconds
Timing for main (dt=  4.86): time 2021-08-04_00:03:18 on domain   3:    0.15071 elapsed seconds
Timing for main (dt= 14.58): time 2021-08-04_00:03:18 on domain   2:    0.62305 elapsed seconds
Timing for main (dt= 43.75): time 2021-08-04_00:03:18 on domain   1:    1.94191 elapsed seconds
Timing for main (dt=  5.10): time 2021-08-04_00:03:24 on domain   3:    0.15706 elapsed seconds
Timing for main (dt=  5.10): time 2021-08-04_00:03:29 on domain   3:    0.14675 elapsed seconds
Timing for main (dt=  5.10): time 2021-08-04_00:03:34 on domain   3:    0.15137 elapsed seconds
Timing for main (dt= 15.31): time 2021-08-04_00:03:34 on domain   2:    0.62302 elapsed seconds
Timing for main (dt=  5.10): time 2021-08-04_00:03:39 on domain   3:    0.15754 elapsed seconds
Timing for main (dt=  5.10): time 2021-08-04_00:03:44 on domain   3:    0.14779 elapsed seconds
Timing for main (dt=  5.10): time 2021-08-04_00:03:49 on domain   3:    0.14918 elapsed seconds
Timing for main (dt= 15.31): time 2021-08-04_00:03:49 on domain   2:    0.62209 elapsed seconds
Timing for main (dt=  5.10): time 2021-08-04_00:03:54 on domain   3:    0.15605 elapsed seconds
Timing for main (dt=  5.10): time 2021-08-04_00:03:59 on domain   3:    0.14688 elapsed seconds
Timing for main (dt=  5.10): time 2021-08-04_00:04:04 on domain   3:    0.15028 elapsed seconds
Timing for main (dt= 15.31): time 2021-08-04_00:04:04 on domain   2:    0.62226 elapsed seconds
Timing for main (dt= 45.94): time 2021-08-04_00:04:04 on domain   1:    1.94186 elapsed seconds
Timing for main (dt=  5.36): time 2021-08-04_00:04:10 on domain   3:    0.15577 elapsed seconds
Timing for main (dt=  5.36): time 2021-08-04_00:04:15 on domain   3:    0.14617 elapsed seconds
Timing for main (dt=  5.36): time 2021-08-04_00:04:20 on domain   3:    0.15172 elapsed seconds
Timing for main (dt= 16.08): time 2021-08-04_00:04:20 on domain   2:    0.62201 elapsed seconds
Timing for main (dt=  5.36): time 2021-08-04_00:04:26 on domain   3:    0.15686 elapsed seconds
Timing for main (dt=  5.36): time 2021-08-04_00:04:31 on domain   3:    0.14738 elapsed seconds
Timing for main (dt=  5.36): time 2021-08-04_00:04:37 on domain   3:    0.14836 elapsed seconds
Timing for main (dt= 16.08): time 2021-08-04_00:04:37 on domain   2:    0.62086 elapsed seconds
Timing for main (dt=  5.36): time 2021-08-04_00:04:42 on domain   3:    0.15490 elapsed seconds
Timing for main (dt=  5.36): time 2021-08-04_00:04:47 on domain   3:    0.14774 elapsed seconds
Timing for main (dt=  5.36): time 2021-08-04_00:04:53 on domain   3:    0.15106 elapsed seconds
Timing for main (dt= 16.08): time 2021-08-04_00:04:53 on domain   2:    0.62129 elapsed seconds
Timing for main (dt= 48.24): time 2021-08-04_00:04:53 on domain   1:    1.93911 elapsed seconds
Timing for main (dt=  5.63): time 2021-08-04_00:04:58 on domain   3:    0.15768 elapsed seconds
Timing for main (dt=  5.63): time 2021-08-04_00:05:04 on domain   3:    0.14738 elapsed seconds
Timing for main (dt=  5.63): time 2021-08-04_00:05:09 on domain   3:    0.43504 elapsed seconds
Timing for main (dt= 16.88): time 2021-08-04_00:05:09 on domain   2:    0.90834 elapsed seconds
Timing for main (dt=  5.63): time 2021-08-04_00:05:15 on domain   3:    0.15750 elapsed seconds
Timing for main (dt=  5.63): time 2021-08-04_00:05:21 on domain   3:    0.14574 elapsed seconds
Timing for main (dt=  5.63): time 2021-08-04_00:05:26 on domain   3:    0.15099 elapsed seconds
Timing for main (dt= 16.88): time 2021-08-04_00:05:26 on domain   2:    0.68648 elapsed seconds
Timing for main (dt=  5.63): time 2021-08-04_00:05:32 on domain   3:    0.15705 elapsed seconds
Timing for main (dt=  5.63): time 2021-08-04_00:05:38 on domain   3:    0.14740 elapsed seconds
Timing for main (dt=  5.63): time 2021-08-04_00:05:43 on domain   3:    0.15112 elapsed seconds
Timing for main (dt= 16.88): time 2021-08-04_00:05:43 on domain   2:    0.62293 elapsed seconds
Timing for main (dt= 50.65): time 2021-08-04_00:05:43 on domain   1:    2.29893 elapsed seconds
Timing for main (dt=  5.91): time 2021-08-04_00:05:49 on domain   3:    0.15700 elapsed seconds
Timing for main (dt=  5.91): time 2021-08-04_00:05:55 on domain   3:    0.14741 elapsed seconds
Timing for main (dt=  5.91): time 2021-08-04_00:06:01 on domain   3:    0.15025 elapsed seconds
Timing for main (dt= 17.73): time 2021-08-04_00:06:01 on domain   2:    0.62143 elapsed seconds
Timing for main (dt=  5.91): time 2021-08-04_00:06:07 on domain   3:    0.15735 elapsed seconds
Timing for main (dt=  5.91): time 2021-08-04_00:06:13 on domain   3:    0.14677 elapsed seconds
Timing for main (dt=  5.91): time 2021-08-04_00:06:19 on domain   3:    0.15206 elapsed seconds
Timing for main (dt= 17.73): time 2021-08-04_00:06:19 on domain   2:    0.62250 elapsed seconds
Timing for main (dt=  5.91): time 2021-08-04_00:06:25 on domain   3:    0.15653 elapsed seconds
Timing for main (dt=  5.91): time 2021-08-04_00:06:31 on domain   3:    0.14655 elapsed seconds
Timing for main (dt=  5.91): time 2021-08-04_00:06:36 on domain   3:    0.15045 elapsed seconds
Timing for main (dt= 17.73): time 2021-08-04_00:06:36 on domain   2:    0.62139 elapsed seconds
Timing for main (dt= 53.18): time 2021-08-04_00:06:36 on domain   1:    1.96539 elapsed seconds
Timing for main (dt=  6.00): time 2021-08-04_00:06:42 on domain   3:    0.15721 elapsed seconds
Timing for main (dt=  6.00): time 2021-08-04_00:06:48 on domain   3:    0.14733 elapsed seconds
Timing for main (dt=  6.00): time 2021-08-04_00:06:54 on domain   3:    0.15191 elapsed seconds
Timing for main (dt= 18.00): time 2021-08-04_00:06:54 on domain   2:    0.62197 elapsed seconds
Timing for main (dt=  6.00): time 2021-08-04_00:07:00 on domain   3:    0.15655 elapsed seconds
Timing for main (dt=  6.00): time 2021-08-04_00:07:06 on domain   3:    0.14739 elapsed seconds
Timing for main (dt=  6.00): time 2021-08-04_00:07:12 on domain   3:    0.15051 elapsed seconds
Timing for main (dt= 18.00): time 2021-08-04_00:07:12 on domain   2:    0.62337 elapsed seconds
Timing for main (dt=  6.00): time 2021-08-04_00:07:18 on domain   3:    0.15563 elapsed seconds
Timing for main (dt=  6.00): time 2021-08-04_00:07:24 on domain   3:    0.14638 elapsed seconds
Timing for main (dt=  6.00): time 2021-08-04_00:07:30 on domain   3:    0.15339 elapsed seconds
Timing for main (dt= 18.00): time 2021-08-04_00:07:30 on domain   2:    0.62295 elapsed seconds
Timing for main (dt= 54.00): time 2021-08-04_00:07:30 on domain   1:    1.94202 elapsed seconds
Timing for main (dt=  6.00): time 2021-08-04_00:07:36 on domain   3:    0.15640 elapsed seconds
Timing for main (dt=  6.00): time 2021-08-04_00:07:42 on domain   3:    0.14645 elapsed seconds
Timing for main (dt=  6.00): time 2021-08-04_00:07:48 on domain   3:    0.15262 elapsed seconds
Timing for main (dt= 18.00): time 2021-08-04_00:07:48 on domain   2:    0.62178 elapsed seconds
Timing for main (dt=  6.00): time 2021-08-04_00:07:54 on domain   3:    0.15696 elapsed seconds
Timing for main (dt=  6.00): time 2021-08-04_00:08:00 on domain   3:    0.14749 elapsed seconds
Timing for main (dt=  6.00): time 2021-08-04_00:08:06 on domain   3:    0.15257 elapsed seconds
Timing for main (dt= 18.00): time 2021-08-04_00:08:06 on domain   2:    0.62276 elapsed seconds
Timing for main (dt=  6.00): time 2021-08-04_00:08:12 on domain   3:    0.15643 elapsed seconds
Timing for main (dt=  6.00): time 2021-08-04_00:08:18 on domain   3:    0.14631 elapsed seconds
Timing for main (dt=  6.00): time 2021-08-04_00:08:24 on domain   3:    0.15023 elapsed seconds
Timing for main (dt= 18.00): time 2021-08-04_00:08:24 on domain   2:    0.62084 elapsed seconds
Timing for main (dt= 54.00): time 2021-08-04_00:08:24 on domain   1:    1.93902 elapsed seconds
Timing for main (dt=  6.00): time 2021-08-04_00:08:30 on domain   3:    0.15593 elapsed seconds
Timing for main (dt=  6.00): time 2021-08-04_00:08:36 on domain   3:    0.14669 elapsed seconds
Timing for main (dt=  6.00): time 2021-08-04_00:08:42 on domain   3:    0.15228 elapsed seconds
Timing for main (dt= 18.00): time 2021-08-04_00:08:42 on domain   2:    0.62010 elapsed seconds
Timing for main (dt=  6.00): time 2021-08-04_00:08:48 on domain   3:    0.15573 elapsed seconds
Timing for main (dt=  6.00): time 2021-08-04_00:08:54 on domain   3:    0.14626 elapsed seconds
Timing for main (dt=  6.00): time 2021-08-04_00:09:00 on domain   3:    0.15103 elapsed seconds
Timing for main (dt= 18.00): time 2021-08-04_00:09:00 on domain   2:    0.62376 elapsed seconds
Timing for main (dt=  6.00): time 2021-08-04_00:09:06 on domain   3:    0.15613 elapsed seconds
Timing for main (dt=  6.00): time 2021-08-04_00:09:12 on domain   3:    0.14693 elapsed seconds
Timing for main (dt=  6.00): time 2021-08-04_00:09:18 on domain   3:    0.15175 elapsed seconds
Timing for main (dt= 18.00): time 2021-08-04_00:09:18 on domain   2:    0.62546 elapsed seconds
Timing for main (dt= 54.00): time 2021-08-04_00:09:18 on domain   1:    1.94357 elapsed seconds
Timing for main (dt=  6.00): time 2021-08-04_00:09:24 on domain   3:    0.15542 elapsed seconds
Timing for main (dt=  6.00): time 2021-08-04_00:09:30 on domain   3:    0.14746 elapsed seconds
Timing for main (dt=  6.00): time 2021-08-04_00:09:36 on domain   3:    0.15102 elapsed seconds
Timing for main (dt= 18.00): time 2021-08-04_00:09:36 on domain   2:    0.62143 elapsed seconds
Timing for main (dt=  6.00): time 2021-08-04_00:09:42 on domain   3:    0.15762 elapsed seconds
Timing for main (dt=  6.00): time 2021-08-04_00:09:48 on domain   3:    0.14591 elapsed seconds
Timing for main (dt=  6.00): time 2021-08-04_00:09:54 on domain   3:    0.14945 elapsed seconds
Timing for main (dt= 18.00): time 2021-08-04_00:09:54 on domain   2:    0.62250 elapsed seconds
Timing for main (dt=  6.00): time 2021-08-04_00:10:00 on domain   3:    0.15564 elapsed seconds
Timing for main (dt=  6.00): time 2021-08-04_00:10:06 on domain   3:    0.14566 elapsed seconds
Timing for main (dt=  6.00): time 2021-08-04_00:10:12 on domain   3:    0.44012 elapsed seconds
Timing for main (dt= 18.00): time 2021-08-04_00:10:12 on domain   2:    0.90950 elapsed seconds
Timing for main (dt= 54.00): time 2021-08-04_00:10:12 on domain   1:    2.22863 elapsed seconds
Timing for main (dt=  6.00): time 2021-08-04_00:10:18 on domain   3:    0.15736 elapsed seconds
Timing for main (dt=  6.00): time 2021-08-04_00:10:24 on domain   3:    0.14540 elapsed seconds
Timing for main (dt=  6.00): time 2021-08-04_00:10:30 on domain   3:    0.15190 elapsed seconds
Timing for main (dt= 18.00): time 2021-08-04_00:10:30 on domain   2:    0.68191 elapsed seconds
Timing for main (dt=  6.00): time 2021-08-04_00:10:36 on domain   3:    0.15677 elapsed seconds
Timing for main (dt=  6.00): time 2021-08-04_00:10:42 on domain   3:    0.14654 elapsed seconds
Timing for main (dt=  6.00): time 2021-08-04_00:10:48 on domain   3:    0.15188 elapsed seconds
Timing for main (dt= 18.00): time 2021-08-04_00:10:48 on domain   2:    0.62185 elapsed seconds
Timing for main (dt=  6.00): time 2021-08-04_00:10:54 on domain   3:    0.15695 elapsed seconds
Timing for main (dt=  6.00): time 2021-08-04_00:11:00 on domain   3:    0.14627 elapsed seconds
Timing for main (dt=  6.00): time 2021-08-04_00:11:06 on domain   3:    0.14940 elapsed seconds
Timing for main (dt= 18.00): time 2021-08-04_00:11:06 on domain   2:    0.62100 elapsed seconds
Timing for main (dt= 54.00): time 2021-08-04_00:11:06 on domain   1:    1.99835 elapsed seconds
Timing for main (dt=  6.00): time 2021-08-04_00:11:12 on domain   3:    0.15457 elapsed seconds
Timing for main (dt=  6.00): time 2021-08-04_00:11:18 on domain   3:    0.14650 elapsed seconds
Timing for main (dt=  6.00): time 2021-08-04_00:11:24 on domain   3:    0.14684 elapsed seconds
Timing for main (dt= 18.00): time 2021-08-04_00:11:24 on domain   2:    0.61269 elapsed seconds
Timing for main (dt=  6.00): time 2021-08-04_00:11:30 on domain   3:    0.15558 elapsed seconds
Timing for main (dt=  6.00): time 2021-08-04_00:11:36 on domain   3:    0.14753 elapsed seconds
Timing for main (dt=  6.00): time 2021-08-04_00:11:42 on domain   3:    0.14736 elapsed seconds
Timing for main (dt= 18.00): time 2021-08-04_00:11:42 on domain   2:    0.61496 elapsed seconds
Timing for main (dt=  6.00): time 2021-08-04_00:11:48 on domain   3:    0.15540 elapsed seconds
Timing for main (dt=  6.00): time 2021-08-04_00:11:54 on domain   3:    0.14799 elapsed seconds
Timing for main (dt=  6.00): time 2021-08-04_00:12:00 on domain   3:    0.14783 elapsed seconds
Timing for main (dt= 18.00): time 2021-08-04_00:12:00 on domain   2:    0.61363 elapsed seconds
Timing for main (dt= 54.00): time 2021-08-04_00:12:00 on domain   1:    1.94096 elapsed seconds
Timing for main (dt=  6.00): time 2021-08-04_00:12:06 on domain   3:    0.15631 elapsed seconds
Timing for main (dt=  6.00): time 2021-08-04_00:12:12 on domain   3:    0.14757 elapsed seconds
Timing for main (dt=  6.00): time 2021-08-04_00:12:18 on domain   3:    0.14789 elapsed seconds
Timing for main (dt= 18.00): time 2021-08-04_00:12:18 on domain   2:    0.61343 elapsed seconds
Timing for main (dt=  6.00): time 2021-08-04_00:12:24 on domain   3:    0.15584 elapsed seconds
Timing for main (dt=  6.00): time 2021-08-04_00:12:30 on domain   3:    0.14705 elapsed seconds
Timing for main (dt=  6.00): time 2021-08-04_00:12:36 on domain   3:    0.14794 elapsed seconds
Timing for main (dt= 18.00): time 2021-08-04_00:12:36 on domain   2:    0.61327 elapsed seconds
Timing for main (dt=  6.00): time 2021-08-04_00:12:42 on domain   3:    0.15562 elapsed seconds
Timing for main (dt=  6.00): time 2021-08-04_00:12:48 on domain   3:    0.14737 elapsed seconds
Timing for main (dt=  6.00): time 2021-08-04_00:12:54 on domain   3:    0.14771 elapsed seconds
Timing for main (dt= 18.00): time 2021-08-04_00:12:54 on domain   2:    0.61287 elapsed seconds
Timing for main (dt= 54.00): time 2021-08-04_00:12:54 on domain   1:    1.91294 elapsed seconds
Timing for main (dt=  6.00): time 2021-08-04_00:13:00 on domain   3:    0.15582 elapsed seconds
Timing for main (dt=  6.00): time 2021-08-04_00:13:06 on domain   3:    0.14569 elapsed seconds
Timing for main (dt=  6.00): time 2021-08-04_00:13:12 on domain   3:    0.14881 elapsed seconds
Timing for main (dt= 18.00): time 2021-08-04_00:13:12 on domain   2:    0.61347 elapsed seconds
Timing for main (dt=  6.00): time 2021-08-04_00:13:18 on domain   3:    0.15590 elapsed seconds
Timing for main (dt=  6.00): time 2021-08-04_00:13:24 on domain   3:    0.14767 elapsed seconds
Timing for main (dt=  6.00): time 2021-08-04_00:13:30 on domain   3:    0.14775 elapsed seconds
Timing for main (dt= 18.00): time 2021-08-04_00:13:30 on domain   2:    0.61731 elapsed seconds
Timing for main (dt=  6.00): time 2021-08-04_00:13:36 on domain   3:    0.15716 elapsed seconds
Timing for main (dt=  6.00): time 2021-08-04_00:13:42 on domain   3:    0.14629 elapsed seconds
Timing for main (dt=  6.00): time 2021-08-04_00:13:48 on domain   3:    0.14760 elapsed seconds
Timing for main (dt= 18.00): time 2021-08-04_00:13:48 on domain   2:    0.61362 elapsed seconds
Timing for main (dt= 54.00): time 2021-08-04_00:13:48 on domain   1:    1.91876 elapsed seconds
Timing for main (dt=  6.00): time 2021-08-04_00:13:54 on domain   3:    0.15504 elapsed seconds
Timing for main (dt=  6.00): time 2021-08-04_00:14:00 on domain   3:    0.14741 elapsed seconds
Timing for main (dt=  6.00): time 2021-08-04_00:14:06 on domain   3:    0.14904 elapsed seconds
Timing for main (dt= 18.00): time 2021-08-04_00:14:06 on domain   2:    0.61393 elapsed seconds
Timing for main (dt=  6.00): time 2021-08-04_00:14:12 on domain   3:    0.15577 elapsed seconds
Timing for main (dt=  6.00): time 2021-08-04_00:14:18 on domain   3:    0.14646 elapsed seconds
Timing for main (dt=  6.00): time 2021-08-04_00:14:24 on domain   3:    0.14821 elapsed seconds
Timing for main (dt= 18.00): time 2021-08-04_00:14:24 on domain   2:    0.61404 elapsed seconds
Timing for main (dt=  6.00): time 2021-08-04_00:14:30 on domain   3:    0.15737 elapsed seconds
Timing for main (dt=  6.00): time 2021-08-04_00:14:36 on domain   3:    0.14650 elapsed seconds
Timing for main (dt=  6.00): time 2021-08-04_00:14:42 on domain   3:    0.14741 elapsed seconds
Timing for main (dt= 18.00): time 2021-08-04_00:14:42 on domain   2:    0.61305 elapsed seconds
Timing for main (dt= 54.00): time 2021-08-04_00:14:42 on domain   1:    1.91605 elapsed seconds
Timing for main (dt=  6.00): time 2021-08-04_00:14:48 on domain   3:    0.15763 elapsed seconds
Timing for main (dt=  6.00): time 2021-08-04_00:14:54 on domain   3:    0.14723 elapsed seconds
Timing for main (dt=  6.00): time 2021-08-04_00:15:00 on domain   3:    0.14936 elapsed seconds
Timing for main (dt= 18.00): time 2021-08-04_00:15:00 on domain   2:    0.61458 elapsed seconds
Timing for main (dt=  6.00): time 2021-08-04_00:15:06 on domain   3:    0.15609 elapsed seconds
Timing for main (dt=  6.00): time 2021-08-04_00:15:12 on domain   3:    0.42901 elapsed seconds
Timing for main (dt=  6.00): time 2021-08-04_00:15:18 on domain   3:    0.15702 elapsed seconds
Timing for main (dt= 18.00): time 2021-08-04_00:15:18 on domain   2:    0.90686 elapsed seconds
Timing for main (dt=  6.00): time 2021-08-04_00:15:24 on domain   3:    0.15570 elapsed seconds
Timing for main (dt=  6.00): time 2021-08-04_00:15:30 on domain   3:    0.14597 elapsed seconds
Timing for main (dt=  6.00): time 2021-08-04_00:15:36 on domain   3:    0.14809 elapsed seconds
Timing for main (dt= 18.00): time 2021-08-04_00:15:36 on domain   2:    0.67733 elapsed seconds
Timing for main (dt= 54.00): time 2021-08-04_00:15:36 on domain   1:    2.27219 elapsed seconds
Timing for main (dt=  6.00): time 2021-08-04_00:15:42 on domain   3:    0.15613 elapsed seconds
Timing for main (dt=  6.00): time 2021-08-04_00:15:48 on domain   3:    0.14652 elapsed seconds
Timing for main (dt=  6.00): time 2021-08-04_00:15:54 on domain   3:    0.14807 elapsed seconds
Timing for main (dt= 18.00): time 2021-08-04_00:15:54 on domain   2:    0.61115 elapsed seconds
Timing for main (dt=  6.00): time 2021-08-04_00:16:00 on domain   3:    0.15656 elapsed seconds
Timing for main (dt=  6.00): time 2021-08-04_00:16:06 on domain   3:    0.14764 elapsed seconds
Timing for main (dt=  6.00): time 2021-08-04_00:16:12 on domain   3:    0.14732 elapsed seconds
Timing for main (dt= 18.00): time 2021-08-04_00:16:12 on domain   2:    0.61200 elapsed seconds
Timing for main (dt=  6.00): time 2021-08-04_00:16:18 on domain   3:    0.15668 elapsed seconds
Timing for main (dt=  6.00): time 2021-08-04_00:16:24 on domain   3:    0.14766 elapsed seconds
Timing for main (dt=  6.00): time 2021-08-04_00:16:30 on domain   3:    0.14754 elapsed seconds
Timing for main (dt= 18.00): time 2021-08-04_00:16:30 on domain   2:    0.61430 elapsed seconds
Timing for main (dt= 54.00): time 2021-08-04_00:16:30 on domain   1:    1.91219 elapsed seconds
Timing for main (dt=  6.00): time 2021-08-04_00:16:36 on domain   3:    0.15601 elapsed seconds
Timing for main (dt=  6.00): time 2021-08-04_00:16:42 on domain   3:    0.14686 elapsed seconds
Timing for main (dt=  6.00): time 2021-08-04_00:16:48 on domain   3:    0.14731 elapsed seconds
Timing for main (dt= 18.00): time 2021-08-04_00:16:48 on domain   2:    0.61227 elapsed seconds
Timing for main (dt=  6.00): time 2021-08-04_00:16:54 on domain   3:    0.15607 elapsed seconds
Timing for main (dt=  6.00): time 2021-08-04_00:17:00 on domain   3:    0.14726 elapsed seconds
Timing for main (dt=  6.00): time 2021-08-04_00:17:06 on domain   3:    0.14717 elapsed seconds
Timing for main (dt= 18.00): time 2021-08-04_00:17:06 on domain   2:    0.61111 elapsed seconds
Timing for main (dt=  6.00): time 2021-08-04_00:17:12 on domain   3:    0.15531 elapsed seconds
Timing for main (dt=  6.00): time 2021-08-04_00:17:18 on domain   3:    0.14747 elapsed seconds
Timing for main (dt=  6.00): time 2021-08-04_00:17:24 on domain   3:    0.14764 elapsed seconds
Timing for main (dt= 18.00): time 2021-08-04_00:17:24 on domain   2:    0.61214 elapsed seconds
Timing for main (dt= 54.00): time 2021-08-04_00:17:24 on domain   1:    1.93465 elapsed seconds
Timing for main (dt=  6.00): time 2021-08-04_00:17:30 on domain   3:    0.15476 elapsed seconds
Timing for main (dt=  6.00): time 2021-08-04_00:17:36 on domain   3:    0.14781 elapsed seconds
Timing for main (dt=  6.00): time 2021-08-04_00:17:42 on domain   3:    0.14794 elapsed seconds
Timing for main (dt= 18.00): time 2021-08-04_00:17:42 on domain   2:    0.61114 elapsed seconds
Timing for main (dt=  6.00): time 2021-08-04_00:17:48 on domain   3:    0.15581 elapsed seconds
Timing for main (dt=  6.00): time 2021-08-04_00:17:54 on domain   3:    0.14855 elapsed seconds
Timing for main (dt=  6.00): time 2021-08-04_00:18:00 on domain   3:    0.14748 elapsed seconds
Timing for main (dt= 18.00): time 2021-08-04_00:18:00 on domain   2:    0.61470 elapsed seconds
Timing for main (dt=  6.00): time 2021-08-04_00:18:06 on domain   3:    0.15590 elapsed seconds
Timing for main (dt=  6.00): time 2021-08-04_00:18:12 on domain   3:    0.14649 elapsed seconds
Timing for main (dt=  6.00): time 2021-08-04_00:18:18 on domain   3:    0.14684 elapsed seconds
Timing for main (dt= 18.00): time 2021-08-04_00:18:18 on domain   2:    0.61263 elapsed seconds
Timing for main (dt= 54.00): time 2021-08-04_00:18:18 on domain   1:    1.91239 elapsed seconds
Timing for main (dt=  6.00): time 2021-08-04_00:18:24 on domain   3:    0.15711 elapsed seconds
Timing for main (dt=  6.00): time 2021-08-04_00:18:30 on domain   3:    0.14797 elapsed seconds
Timing for main (dt=  6.00): time 2021-08-04_00:18:36 on domain   3:    0.14737 elapsed seconds
Timing for main (dt= 18.00): time 2021-08-04_00:18:36 on domain   2:    0.61234 elapsed seconds
Timing for main (dt=  6.00): time 2021-08-04_00:18:42 on domain   3:    0.15818 elapsed seconds
Timing for main (dt=  6.00): time 2021-08-04_00:18:48 on domain   3:    0.14656 elapsed seconds
Timing for main (dt=  6.00): time 2021-08-04_00:18:54 on domain   3:    0.14696 elapsed seconds
Timing for main (dt= 18.00): time 2021-08-04_00:18:54 on domain   2:    0.61156 elapsed seconds
Timing for main (dt=  6.00): time 2021-08-04_00:19:00 on domain   3:    0.15609 elapsed seconds
Timing for main (dt=  6.00): time 2021-08-04_00:19:06 on domain   3:    0.14599 elapsed seconds
Timing for main (dt=  6.00): time 2021-08-04_00:19:12 on domain   3:    0.14773 elapsed seconds
Timing for main (dt= 18.00): time 2021-08-04_00:19:12 on domain   2:    0.61274 elapsed seconds
Timing for main (dt= 54.00): time 2021-08-04_00:19:12 on domain   1:    1.90998 elapsed seconds
Timing for main (dt=  6.00): time 2021-08-04_00:19:18 on domain   3:    0.15578 elapsed seconds
Timing for main (dt=  6.00): time 2021-08-04_00:19:24 on domain   3:    0.14738 elapsed seconds
Timing for main (dt=  6.00): time 2021-08-04_00:19:30 on domain   3:    0.14727 elapsed seconds
Timing for main (dt= 18.00): time 2021-08-04_00:19:30 on domain   2:    0.60824 elapsed seconds
Timing for main (dt=  6.00): time 2021-08-04_00:19:36 on domain   3:    0.15757 elapsed seconds
Timing for main (dt=  6.00): time 2021-08-04_00:19:42 on domain   3:    0.14638 elapsed seconds
Timing for main (dt=  6.00): time 2021-08-04_00:19:48 on domain   3:    0.14751 elapsed seconds
Timing for main (dt= 18.00): time 2021-08-04_00:19:48 on domain   2:    0.61461 elapsed seconds
Timing for main (dt=  6.00): time 2021-08-04_00:19:54 on domain   3:    0.15683 elapsed seconds
Timing for main (dt=  6.00): time 2021-08-04_00:20:00 on domain   3:    0.14776 elapsed seconds
Timing for main (dt=  6.00): time 2021-08-04_00:20:06 on domain   3:    0.14665 elapsed seconds
Timing for main (dt= 18.00): time 2021-08-04_00:20:06 on domain   2:    0.61349 elapsed seconds
Timing for main (dt= 54.00): time 2021-08-04_00:20:06 on domain   1:    1.91072 elapsed seconds
Timing for main (dt=  6.00): time 2021-08-04_00:20:12 on domain   3:    0.42787 elapsed seconds
Timing for main (dt=  6.00): time 2021-08-04_00:20:18 on domain   3:    0.15454 elapsed seconds
Timing for main (dt=  6.00): time 2021-08-04_00:20:24 on domain   3:    0.15229 elapsed seconds
Timing for main (dt= 18.00): time 2021-08-04_00:20:24 on domain   2:    0.89596 elapsed seconds
Timing for main (dt=  6.00): time 2021-08-04_00:20:30 on domain   3:    0.15687 elapsed seconds
Timing for main (dt=  6.00): time 2021-08-04_00:20:36 on domain   3:    0.14584 elapsed seconds
Timing for main (dt=  6.00): time 2021-08-04_00:20:42 on domain   3:    0.15010 elapsed seconds
Timing for main (dt= 18.00): time 2021-08-04_00:20:42 on domain   2:    0.68002 elapsed seconds
Timing for main (dt=  6.00): time 2021-08-04_00:20:48 on domain   3:    0.15733 elapsed seconds
Timing for main (dt=  6.00): time 2021-08-04_00:20:54 on domain   3:    0.14610 elapsed seconds
Timing for main (dt=  6.00): time 2021-08-04_00:21:00 on domain   3:    0.15038 elapsed seconds
Timing for main (dt= 18.00): time 2021-08-04_00:21:00 on domain   2:    0.61385 elapsed seconds
Timing for main (dt= 54.00): time 2021-08-04_00:21:00 on domain   1:    2.26447 elapsed seconds
Timing for main (dt=  6.00): time 2021-08-04_00:21:06 on domain   3:    0.15673 elapsed seconds
Timing for main (dt=  6.00): time 2021-08-04_00:21:12 on domain   3:    0.14668 elapsed seconds
Timing for main (dt=  6.00): time 2021-08-04_00:21:18 on domain   3:    0.14672 elapsed seconds
Timing for main (dt= 18.00): time 2021-08-04_00:21:18 on domain   2:    0.61027 elapsed seconds
Timing for main (dt=  6.00): time 2021-08-04_00:21:24 on domain   3:    0.15666 elapsed seconds
Timing for main (dt=  6.00): time 2021-08-04_00:21:30 on domain   3:    0.14582 elapsed seconds
Timing for main (dt=  6.00): time 2021-08-04_00:21:36 on domain   3:    0.14863 elapsed seconds
Timing for main (dt= 18.00): time 2021-08-04_00:21:36 on domain   2:    0.61447 elapsed seconds
Timing for main (dt=  6.00): time 2021-08-04_00:21:42 on domain   3:    0.15841 elapsed seconds
Timing for main (dt=  6.00): time 2021-08-04_00:21:48 on domain   3:    0.14760 elapsed seconds
Timing for main (dt=  6.00): time 2021-08-04_00:21:54 on domain   3:    0.14755 elapsed seconds
Timing for main (dt= 18.00): time 2021-08-04_00:21:54 on domain   2:    0.61504 elapsed seconds
Timing for main (dt= 54.00): time 2021-08-04_00:21:54 on domain   1:    1.91511 elapsed seconds
Timing for main (dt=  6.00): time 2021-08-04_00:22:00 on domain   3:    0.15658 elapsed seconds
Timing for main (dt=  6.00): time 2021-08-04_00:22:06 on domain   3:    0.14608 elapsed seconds
Timing for main (dt=  6.00): time 2021-08-04_00:22:12 on domain   3:    0.14978 elapsed seconds
Timing for main (dt= 18.00): time 2021-08-04_00:22:12 on domain   2:    0.61372 elapsed seconds
Timing for main (dt=  6.00): time 2021-08-04_00:22:18 on domain   3:    0.15553 elapsed seconds
Timing for main (dt=  6.00): time 2021-08-04_00:22:24 on domain   3:    0.14705 elapsed seconds
Timing for main (dt=  6.00): time 2021-08-04_00:22:30 on domain   3:    0.14788 elapsed seconds
Timing for main (dt= 18.00): time 2021-08-04_00:22:30 on domain   2:    0.61361 elapsed seconds
Timing for main (dt=  6.00): time 2021-08-04_00:22:36 on domain   3:    0.15717 elapsed seconds
Timing for main (dt=  6.00): time 2021-08-04_00:22:42 on domain   3:    0.14649 elapsed seconds
Timing for main (dt=  6.00): time 2021-08-04_00:22:48 on domain   3:    0.14704 elapsed seconds
Timing for main (dt= 18.00): time 2021-08-04_00:22:48 on domain   2:    0.61523 elapsed seconds
Timing for main (dt= 54.00): time 2021-08-04_00:22:48 on domain   1:    1.94188 elapsed seconds
Timing for main (dt=  6.00): time 2021-08-04_00:22:54 on domain   3:    0.15767 elapsed seconds
Timing for main (dt=  6.00): time 2021-08-04_00:23:00 on domain   3:    0.14656 elapsed seconds
Timing for main (dt=  6.00): time 2021-08-04_00:23:06 on domain   3:    0.14901 elapsed seconds
Timing for main (dt= 18.00): time 2021-08-04_00:23:06 on domain   2:    0.61255 elapsed seconds
Timing for main (dt=  6.00): time 2021-08-04_00:23:12 on domain   3:    0.15638 elapsed seconds
Timing for main (dt=  6.00): time 2021-08-04_00:23:18 on domain   3:    0.14656 elapsed seconds
Timing for main (dt=  6.00): time 2021-08-04_00:23:24 on domain   3:    0.14669 elapsed seconds
Timing for main (dt= 18.00): time 2021-08-04_00:23:24 on domain   2:    0.61311 elapsed seconds
Timing for main (dt=  6.00): time 2021-08-04_00:23:30 on domain   3:    0.15715 elapsed seconds
Timing for main (dt=  6.00): time 2021-08-04_00:23:36 on domain   3:    0.14512 elapsed seconds
Timing for main (dt=  6.00): time 2021-08-04_00:23:42 on domain   3:    0.14763 elapsed seconds
Timing for main (dt= 18.00): time 2021-08-04_00:23:42 on domain   2:    0.61465 elapsed seconds
Timing for main (dt= 54.00): time 2021-08-04_00:23:42 on domain   1:    1.91492 elapsed seconds
Timing for main (dt=  6.00): time 2021-08-04_00:23:48 on domain   3:    0.15676 elapsed seconds
Timing for main (dt=  6.00): time 2021-08-04_00:23:54 on domain   3:    0.14592 elapsed seconds
Timing for main (dt=  6.00): time 2021-08-04_00:24:00 on domain   3:    0.14687 elapsed seconds
Timing for main (dt= 18.00): time 2021-08-04_00:24:00 on domain   2:    0.61164 elapsed seconds
Timing for main (dt=  6.00): time 2021-08-04_00:24:06 on domain   3:    0.15832 elapsed seconds
Timing for main (dt=  6.00): time 2021-08-04_00:24:12 on domain   3:    0.14588 elapsed seconds
Timing for main (dt=  6.00): time 2021-08-04_00:24:18 on domain   3:    0.14711 elapsed seconds
Timing for main (dt= 18.00): time 2021-08-04_00:24:18 on domain   2:    0.61290 elapsed seconds
Timing for main (dt=  6.00): time 2021-08-04_00:24:24 on domain   3:    0.15676 elapsed seconds
Timing for main (dt=  6.00): time 2021-08-04_00:24:30 on domain   3:    0.14620 elapsed seconds
Timing for main (dt=  6.00): time 2021-08-04_00:24:36 on domain   3:    0.14685 elapsed seconds
Timing for main (dt= 18.00): time 2021-08-04_00:24:36 on domain   2:    0.61155 elapsed seconds
Timing for main (dt= 54.00): time 2021-08-04_00:24:36 on domain   1:    1.91038 elapsed seconds
Timing for main (dt=  6.00): time 2021-08-04_00:24:42 on domain   3:    0.15644 elapsed seconds
Timing for main (dt=  6.00): time 2021-08-04_00:24:48 on domain   3:    0.14718 elapsed seconds
Timing for main (dt=  6.00): time 2021-08-04_00:24:54 on domain   3:    0.14692 elapsed seconds
Timing for main (dt= 18.00): time 2021-08-04_00:24:54 on domain   2:    0.61228 elapsed seconds
Timing for main (dt=  6.00): time 2021-08-04_00:25:00 on domain   3:    0.15726 elapsed seconds
Timing for main (dt=  6.00): time 2021-08-04_00:25:06 on domain   3:    0.14460 elapsed seconds
Timing for main (dt=  6.00): time 2021-08-04_00:25:12 on domain   3:    0.44604 elapsed seconds
Timing for main (dt= 18.00): time 2021-08-04_00:25:12 on domain   2:    0.91355 elapsed seconds
Timing for main (dt=  6.00): time 2021-08-04_00:25:18 on domain   3:    0.15783 elapsed seconds
Timing for main (dt=  6.00): time 2021-08-04_00:25:24 on domain   3:    0.14582 elapsed seconds
Timing for main (dt=  6.00): time 2021-08-04_00:25:30 on domain   3:    0.14791 elapsed seconds
Timing for main (dt= 18.00): time 2021-08-04_00:25:30 on domain   2:    0.61540 elapsed seconds
Timing for main (dt= 54.00): time 2021-08-04_00:25:30 on domain   1:    2.21563 elapsed seconds
Timing for main (dt=  6.00): time 2021-08-04_00:25:36 on domain   3:    0.15622 elapsed seconds
Timing for main (dt=  6.00): time 2021-08-04_00:25:42 on domain   3:    0.14577 elapsed seconds
Timing for main (dt=  6.00): time 2021-08-04_00:25:48 on domain   3:    0.14538 elapsed seconds
Timing for main (dt= 18.00): time 2021-08-04_00:25:48 on domain   2:    0.67758 elapsed seconds
Timing for main (dt=  6.00): time 2021-08-04_00:25:54 on domain   3:    0.15610 elapsed seconds
Timing for main (dt=  6.00): time 2021-08-04_00:26:00 on domain   3:    0.14690 elapsed seconds
Timing for main (dt=  6.00): time 2021-08-04_00:26:06 on domain   3:    0.14677 elapsed seconds
Timing for main (dt= 18.00): time 2021-08-04_00:26:06 on domain   2:    0.61377 elapsed seconds
Timing for main (dt=  6.00): time 2021-08-04_00:26:12 on domain   3:    0.15574 elapsed seconds
Timing for main (dt=  6.00): time 2021-08-04_00:26:18 on domain   3:    0.14610 elapsed seconds
Timing for main (dt=  6.00): time 2021-08-04_00:26:24 on domain   3:    0.14729 elapsed seconds
Timing for main (dt= 18.00): time 2021-08-04_00:26:24 on domain   2:    0.61274 elapsed seconds
Timing for main (dt= 54.00): time 2021-08-04_00:26:24 on domain   1:    1.97787 elapsed seconds
Timing for main (dt=  6.00): time 2021-08-04_00:26:30 on domain   3:    0.15586 elapsed seconds
Timing for main (dt=  6.00): time 2021-08-04_00:26:36 on domain   3:    0.14574 elapsed seconds
Timing for main (dt=  6.00): time 2021-08-04_00:26:42 on domain   3:    0.14932 elapsed seconds
Timing for main (dt= 18.00): time 2021-08-04_00:26:42 on domain   2:    0.61394 elapsed seconds
Timing for main (dt=  6.00): time 2021-08-04_00:26:48 on domain   3:    0.15665 elapsed seconds
Timing for main (dt=  6.00): time 2021-08-04_00:26:54 on domain   3:    0.14666 elapsed seconds
Timing for main (dt=  6.00): time 2021-08-04_00:27:00 on domain   3:    0.14665 elapsed seconds
Timing for main (dt= 18.00): time 2021-08-04_00:27:00 on domain   2:    0.61429 elapsed seconds
Timing for main (dt=  6.00): time 2021-08-04_00:27:06 on domain   3:    0.15723 elapsed seconds
Timing for main (dt=  6.00): time 2021-08-04_00:27:12 on domain   3:    0.14623 elapsed seconds
Timing for main (dt=  6.00): time 2021-08-04_00:27:18 on domain   3:    0.14846 elapsed seconds
Timing for main (dt= 18.00): time 2021-08-04_00:27:18 on domain   2:    0.61511 elapsed seconds
Timing for main (dt= 54.00): time 2021-08-04_00:27:18 on domain   1:    1.91756 elapsed seconds
Timing for main (dt=  6.00): time 2021-08-04_00:27:24 on domain   3:    0.15743 elapsed seconds
Timing for main (dt=  6.00): time 2021-08-04_00:27:30 on domain   3:    0.14604 elapsed seconds
Timing for main (dt=  6.00): time 2021-08-04_00:27:36 on domain   3:    0.14764 elapsed seconds
Timing for main (dt= 18.00): time 2021-08-04_00:27:36 on domain   2:    0.61475 elapsed seconds
Timing for main (dt=  6.00): time 2021-08-04_00:27:42 on domain   3:    0.15649 elapsed seconds
Timing for main (dt=  6.00): time 2021-08-04_00:27:48 on domain   3:    0.14688 elapsed seconds
Timing for main (dt=  6.00): time 2021-08-04_00:27:54 on domain   3:    0.14692 elapsed seconds
Timing for main (dt= 18.00): time 2021-08-04_00:27:54 on domain   2:    0.61881 elapsed seconds
Timing for main (dt=  6.00): time 2021-08-04_00:28:00 on domain   3:    0.15739 elapsed seconds
Timing for main (dt=  6.00): time 2021-08-04_00:28:06 on domain   3:    0.14630 elapsed seconds
Timing for main (dt=  6.00): time 2021-08-04_00:28:12 on domain   3:    0.14793 elapsed seconds
Timing for main (dt= 18.00): time 2021-08-04_00:28:12 on domain   2:    0.61628 elapsed seconds
Timing for main (dt= 54.00): time 2021-08-04_00:28:12 on domain   1:    1.94951 elapsed seconds
Timing for main (dt=  6.00): time 2021-08-04_00:28:18 on domain   3:    0.15748 elapsed seconds
Timing for main (dt=  6.00): time 2021-08-04_00:28:24 on domain   3:    0.14633 elapsed seconds
Timing for main (dt=  6.00): time 2021-08-04_00:28:30 on domain   3:    0.14639 elapsed seconds
Timing for main (dt= 18.00): time 2021-08-04_00:28:30 on domain   2:    0.61433 elapsed seconds
Timing for main (dt=  6.00): time 2021-08-04_00:28:36 on domain   3:    0.15732 elapsed seconds
Timing for main (dt=  6.00): time 2021-08-04_00:28:42 on domain   3:    0.14602 elapsed seconds
Timing for main (dt=  6.00): time 2021-08-04_00:28:48 on domain   3:    0.15136 elapsed seconds
Timing for main (dt= 18.00): time 2021-08-04_00:28:48 on domain   2:    0.61644 elapsed seconds
Timing for main (dt=  6.00): time 2021-08-04_00:28:54 on domain   3:    0.15822 elapsed seconds
Timing for main (dt=  6.00): time 2021-08-04_00:29:00 on domain   3:    0.14575 elapsed seconds
Timing for main (dt=  6.00): time 2021-08-04_00:29:06 on domain   3:    0.14794 elapsed seconds
Timing for main (dt= 18.00): time 2021-08-04_00:29:06 on domain   2:    0.61641 elapsed seconds
Timing for main (dt= 54.00): time 2021-08-04_00:29:06 on domain   1:    1.92166 elapsed seconds
Timing for main (dt=  6.00): time 2021-08-04_00:29:12 on domain   3:    0.15682 elapsed seconds
Timing for main (dt=  6.00): time 2021-08-04_00:29:18 on domain   3:    0.14613 elapsed seconds
Timing for main (dt=  6.00): time 2021-08-04_00:29:24 on domain   3:    0.14736 elapsed seconds
Timing for main (dt= 18.00): time 2021-08-04_00:29:24 on domain   2:    0.61711 elapsed seconds
Timing for main (dt=  6.00): time 2021-08-04_00:29:30 on domain   3:    0.15734 elapsed seconds
Timing for main (dt=  6.00): time 2021-08-04_00:29:36 on domain   3:    0.14640 elapsed seconds
Timing for main (dt=  6.00): time 2021-08-04_00:29:42 on domain   3:    0.14767 elapsed seconds
Timing for main (dt= 18.00): time 2021-08-04_00:29:42 on domain   2:    0.61552 elapsed seconds
Timing for main (dt=  6.00): time 2021-08-04_00:29:48 on domain   3:    0.15821 elapsed seconds
Timing for main (dt=  6.00): time 2021-08-04_00:29:54 on domain   3:    0.14399 elapsed seconds
Timing for main (dt=  6.00): time 2021-08-04_00:30:00 on domain   3:    0.14822 elapsed seconds
Timing for main (dt= 18.00): time 2021-08-04_00:30:00 on domain   2:    0.61583 elapsed seconds
Timing for main (dt= 54.00): time 2021-08-04_00:30:00 on domain   1:    1.92389 elapsed seconds
Timing for main (dt=  6.00): time 2021-08-04_00:30:06 on domain   3:    0.15690 elapsed seconds
Timing for main (dt=  6.00): time 2021-08-04_00:30:12 on domain   3:    0.43783 elapsed seconds
Timing for main (dt=  6.00): time 2021-08-04_00:30:18 on domain   3:    0.15472 elapsed seconds
Timing for main (dt= 18.00): time 2021-08-04_00:30:18 on domain   2:    0.91302 elapsed seconds
Timing for main (dt=  6.00): time 2021-08-04_00:30:24 on domain   3:    0.15858 elapsed seconds
Timing for main (dt=  6.00): time 2021-08-04_00:30:30 on domain   3:    0.14599 elapsed seconds
Timing for main (dt=  6.00): time 2021-08-04_00:30:36 on domain   3:    0.14700 elapsed seconds
Timing for main (dt= 18.00): time 2021-08-04_00:30:36 on domain   2:    0.61596 elapsed seconds
Timing for main (dt=  6.00): time 2021-08-04_00:30:42 on domain   3:    0.15812 elapsed seconds
Timing for main (dt=  6.00): time 2021-08-04_00:30:48 on domain   3:    0.14542 elapsed seconds
Timing for main (dt=  6.00): time 2021-08-04_00:30:54 on domain   3:    0.14814 elapsed seconds
Timing for main (dt= 18.00): time 2021-08-04_00:30:54 on domain   2:    0.68265 elapsed seconds
Timing for main (dt= 54.00): time 2021-08-04_00:30:54 on domain   1:    2.28556 elapsed seconds
Timing for main (dt=  6.00): time 2021-08-04_00:31:00 on domain   3:    0.15916 elapsed seconds
Timing for main (dt=  6.00): time 2021-08-04_00:31:06 on domain   3:    0.14574 elapsed seconds
Timing for main (dt=  6.00): time 2021-08-04_00:31:12 on domain   3:    0.14931 elapsed seconds
Timing for main (dt= 18.00): time 2021-08-04_00:31:12 on domain   2:    0.61608 elapsed seconds
Timing for main (dt=  6.00): time 2021-08-04_00:31:18 on domain   3:    0.15834 elapsed seconds
Timing for main (dt=  6.00): time 2021-08-04_00:31:24 on domain   3:    0.14624 elapsed seconds
Timing for main (dt=  6.00): time 2021-08-04_00:31:30 on domain   3:    0.14707 elapsed seconds
Timing for main (dt= 18.00): time 2021-08-04_00:31:30 on domain   2:    0.61627 elapsed seconds
Timing for main (dt=  6.00): time 2021-08-04_00:31:36 on domain   3:    0.15717 elapsed seconds
Timing for main (dt=  6.00): time 2021-08-04_00:31:42 on domain   3:    0.14643 elapsed seconds
Timing for main (dt=  6.00): time 2021-08-04_00:31:48 on domain   3:    0.14757 elapsed seconds
Timing for main (dt= 18.00): time 2021-08-04_00:31:48 on domain   2:    0.61567 elapsed seconds
Timing for main (dt= 54.00): time 2021-08-04_00:31:48 on domain   1:    1.92327 elapsed seconds
Timing for main (dt=  6.00): time 2021-08-04_00:31:54 on domain   3:    0.15760 elapsed seconds
Timing for main (dt=  6.00): time 2021-08-04_00:32:00 on domain   3:    0.14652 elapsed seconds
Timing for main (dt=  6.00): time 2021-08-04_00:32:06 on domain   3:    0.14694 elapsed seconds
Timing for main (dt= 18.00): time 2021-08-04_00:32:06 on domain   2:    0.61629 elapsed seconds
Timing for main (dt=  6.00): time 2021-08-04_00:32:12 on domain   3:    0.15901 elapsed seconds
Timing for main (dt=  6.00): time 2021-08-04_00:32:18 on domain   3:    0.14585 elapsed seconds
Timing for main (dt=  6.00): time 2021-08-04_00:32:24 on domain   3:    0.14944 elapsed seconds
Timing for main (dt= 18.00): time 2021-08-04_00:32:24 on domain   2:    0.61850 elapsed seconds
Timing for main (dt=  6.00): time 2021-08-04_00:32:30 on domain   3:    0.15862 elapsed seconds
Timing for main (dt=  6.00): time 2021-08-04_00:32:36 on domain   3:    0.14603 elapsed seconds
Timing for main (dt=  6.00): time 2021-08-04_00:32:42 on domain   3:    0.14830 elapsed seconds
Timing for main (dt= 18.00): time 2021-08-04_00:32:42 on domain   2:    0.61738 elapsed seconds
Timing for main (dt= 54.00): time 2021-08-04_00:32:42 on domain   1:    1.92654 elapsed seconds
Timing for main (dt=  6.00): time 2021-08-04_00:32:48 on domain   3:    0.15809 elapsed seconds
Timing for main (dt=  6.00): time 2021-08-04_00:32:54 on domain   3:    0.14613 elapsed seconds
Timing for main (dt=  6.00): time 2021-08-04_00:33:00 on domain   3:    0.14600 elapsed seconds
Timing for main (dt= 18.00): time 2021-08-04_00:33:00 on domain   2:    0.61509 elapsed seconds
Timing for main (dt=  6.00): time 2021-08-04_00:33:06 on domain   3:    0.15899 elapsed seconds
Timing for main (dt=  6.00): time 2021-08-04_00:33:12 on domain   3:    0.14536 elapsed seconds
Timing for main (dt=  6.00): time 2021-08-04_00:33:18 on domain   3:    0.14928 elapsed seconds
Timing for main (dt= 18.00): time 2021-08-04_00:33:18 on domain   2:    0.61764 elapsed seconds
Timing for main (dt=  6.00): time 2021-08-04_00:33:24 on domain   3:    0.15888 elapsed seconds
Timing for main (dt=  6.00): time 2021-08-04_00:33:30 on domain   3:    0.14457 elapsed seconds
Timing for main (dt=  6.00): time 2021-08-04_00:33:36 on domain   3:    0.14991 elapsed seconds
Timing for main (dt= 18.00): time 2021-08-04_00:33:36 on domain   2:    0.61933 elapsed seconds
Timing for main (dt= 54.00): time 2021-08-04_00:33:36 on domain   1:    1.95571 elapsed seconds
Timing for main (dt=  6.00): time 2021-08-04_00:33:42 on domain   3:    0.15927 elapsed seconds
Timing for main (dt=  6.00): time 2021-08-04_00:33:48 on domain   3:    0.14576 elapsed seconds
Timing for main (dt=  6.00): time 2021-08-04_00:33:54 on domain   3:    0.14936 elapsed seconds
Timing for main (dt= 18.00): time 2021-08-04_00:33:54 on domain   2:    0.61917 elapsed seconds
Timing for main (dt=  6.00): time 2021-08-04_00:34:00 on domain   3:    0.15757 elapsed seconds
Timing for main (dt=  6.00): time 2021-08-04_00:34:06 on domain   3:    0.14562 elapsed seconds
Timing for main (dt=  6.00): time 2021-08-04_00:34:12 on domain   3:    0.14905 elapsed seconds
Timing for main (dt= 18.00): time 2021-08-04_00:34:12 on domain   2:    0.61706 elapsed seconds
Timing for main (dt=  6.00): time 2021-08-04_00:34:18 on domain   3:    0.15568 elapsed seconds
Timing for main (dt=  6.00): time 2021-08-04_00:34:24 on domain   3:    0.14557 elapsed seconds
Timing for main (dt=  6.00): time 2021-08-04_00:34:30 on domain   3:    0.14727 elapsed seconds
Timing for main (dt= 18.00): time 2021-08-04_00:34:30 on domain   2:    0.61502 elapsed seconds
Timing for main (dt= 54.00): time 2021-08-04_00:34:30 on domain   1:    1.92507 elapsed seconds
Timing for main (dt=  6.00): time 2021-08-04_00:34:36 on domain   3:    0.15874 elapsed seconds
Timing for main (dt=  6.00): time 2021-08-04_00:34:42 on domain   3:    0.14591 elapsed seconds
Timing for main (dt=  6.00): time 2021-08-04_00:34:48 on domain   3:    0.14715 elapsed seconds
Timing for main (dt= 18.00): time 2021-08-04_00:34:48 on domain   2:    0.61796 elapsed seconds
Timing for main (dt=  6.00): time 2021-08-04_00:34:54 on domain   3:    0.15726 elapsed seconds
Timing for main (dt=  6.00): time 2021-08-04_00:35:00 on domain   3:    0.14528 elapsed seconds
Timing for main (dt=  6.00): time 2021-08-04_00:35:06 on domain   3:    0.14895 elapsed seconds
Timing for main (dt= 18.00): time 2021-08-04_00:35:06 on domain   2:    0.61599 elapsed seconds
Timing for main (dt=  6.00): time 2021-08-04_00:35:12 on domain   3:    0.43984 elapsed seconds
Timing for main (dt=  6.00): time 2021-08-04_00:35:18 on domain   3:    0.15411 elapsed seconds
Timing for main (dt=  6.00): time 2021-08-04_00:35:24 on domain   3:    0.15448 elapsed seconds
Timing for main (dt= 18.00): time 2021-08-04_00:35:24 on domain   2:    0.91294 elapsed seconds
Timing for main (dt= 54.00): time 2021-08-04_00:35:24 on domain   1:    2.22214 elapsed seconds
Timing for main (dt=  6.00): time 2021-08-04_00:35:30 on domain   3:    0.15787 elapsed seconds
Timing for main (dt=  6.00): time 2021-08-04_00:35:36 on domain   3:    0.14458 elapsed seconds
Timing for main (dt=  6.00): time 2021-08-04_00:35:42 on domain   3:    0.14785 elapsed seconds
Timing for main (dt= 18.00): time 2021-08-04_00:35:42 on domain   2:    0.67568 elapsed seconds
Timing for main (dt=  6.00): time 2021-08-04_00:35:48 on domain   3:    0.15612 elapsed seconds
Timing for main (dt=  6.00): time 2021-08-04_00:35:54 on domain   3:    0.18570 elapsed seconds
Timing for main (dt=  6.00): time 2021-08-04_00:36:00 on domain   3:    0.14709 elapsed seconds
Timing for main (dt= 18.00): time 2021-08-04_00:36:00 on domain   2:    0.70382 elapsed seconds
Timing for main (dt=  6.00): time 2021-08-04_00:36:06 on domain   3:    0.15631 elapsed seconds
Timing for main (dt=  6.00): time 2021-08-04_00:36:12 on domain   3:    0.14619 elapsed seconds
Timing for main (dt=  6.00): time 2021-08-04_00:36:18 on domain   3:    0.14803 elapsed seconds
Timing for main (dt= 18.00): time 2021-08-04_00:36:18 on domain   2:    0.61668 elapsed seconds
Timing for main (dt= 54.00): time 2021-08-04_00:36:18 on domain   1:    2.08943 elapsed seconds
Timing for main (dt=  6.00): time 2021-08-04_00:36:24 on domain   3:    0.15576 elapsed seconds
Timing for main (dt=  6.00): time 2021-08-04_00:36:30 on domain   3:    0.14638 elapsed seconds
Timing for main (dt=  6.00): time 2021-08-04_00:36:36 on domain   3:    0.15042 elapsed seconds
Timing for main (dt= 18.00): time 2021-08-04_00:36:36 on domain   2:    0.61567 elapsed seconds
Timing for main (dt=  6.00): time 2021-08-04_00:36:42 on domain   3:    0.15860 elapsed seconds
Timing for main (dt=  6.00): time 2021-08-04_00:36:48 on domain   3:    0.14633 elapsed seconds
Timing for main (dt=  6.00): time 2021-08-04_00:36:54 on domain   3:    0.15013 elapsed seconds
Timing for main (dt= 18.00): time 2021-08-04_00:36:54 on domain   2:    0.61855 elapsed seconds
Timing for main (dt=  6.00): time 2021-08-04_00:37:00 on domain   3:    0.15800 elapsed seconds
Timing for main (dt=  6.00): time 2021-08-04_00:37:06 on domain   3:    0.14523 elapsed seconds
Timing for main (dt=  6.00): time 2021-08-04_00:37:12 on domain   3:    0.15386 elapsed seconds
Timing for main (dt= 18.00): time 2021-08-04_00:37:12 on domain   2:    0.61655 elapsed seconds
Timing for main (dt= 54.00): time 2021-08-04_00:37:12 on domain   1:    1.97668 elapsed seconds
Timing for main (dt=  6.00): time 2021-08-04_00:37:18 on domain   3:    0.15690 elapsed seconds
Timing for main (dt=  6.00): time 2021-08-04_00:37:24 on domain   3:    0.14541 elapsed seconds
Timing for main (dt=  6.00): time 2021-08-04_00:37:30 on domain   3:    0.14952 elapsed seconds
Timing for main (dt= 18.00): time 2021-08-04_00:37:30 on domain   2:    0.61630 elapsed seconds
Timing for main (dt=  6.00): time 2021-08-04_00:37:36 on domain   3:    0.15740 elapsed seconds
Timing for main (dt=  6.00): time 2021-08-04_00:37:42 on domain   3:    0.14567 elapsed seconds
Timing for main (dt=  6.00): time 2021-08-04_00:37:48 on domain   3:    0.19707 elapsed seconds
Timing for main (dt= 18.00): time 2021-08-04_00:37:48 on domain   2:    0.66436 elapsed seconds
Timing for main (dt=  6.00): time 2021-08-04_00:37:54 on domain   3:    0.15722 elapsed seconds
Timing for main (dt=  6.00): time 2021-08-04_00:38:00 on domain   3:    0.14510 elapsed seconds
Timing for main (dt=  6.00): time 2021-08-04_00:38:06 on domain   3:    0.14985 elapsed seconds
Timing for main (dt= 18.00): time 2021-08-04_00:38:06 on domain   2:    0.61659 elapsed seconds
Timing for main (dt= 54.00): time 2021-08-04_00:38:06 on domain   1:    1.97176 elapsed seconds
Timing for main (dt=  6.00): time 2021-08-04_00:38:12 on domain   3:    0.15727 elapsed seconds
Timing for main (dt=  6.00): time 2021-08-04_00:38:18 on domain   3:    0.14614 elapsed seconds
Timing for main (dt=  6.00): time 2021-08-04_00:38:24 on domain   3:    0.14955 elapsed seconds
Timing for main (dt= 18.00): time 2021-08-04_00:38:24 on domain   2:    0.62242 elapsed seconds
Timing for main (dt=  6.00): time 2021-08-04_00:38:30 on domain   3:    0.15704 elapsed seconds
Timing for main (dt=  6.00): time 2021-08-04_00:38:36 on domain   3:    0.14716 elapsed seconds
Timing for main (dt=  6.00): time 2021-08-04_00:38:42 on domain   3:    0.14763 elapsed seconds
Timing for main (dt= 18.00): time 2021-08-04_00:38:42 on domain   2:    0.61858 elapsed seconds
Timing for main (dt=  6.00): time 2021-08-04_00:38:48 on domain   3:    0.15622 elapsed seconds
Timing for main (dt=  6.00): time 2021-08-04_00:38:54 on domain   3:    0.14567 elapsed seconds
Timing for main (dt=  6.00): time 2021-08-04_00:39:00 on domain   3:    0.14857 elapsed seconds
Timing for main (dt= 18.00): time 2021-08-04_00:39:00 on domain   2:    0.61394 elapsed seconds
Timing for main (dt= 54.00): time 2021-08-04_00:39:00 on domain   1:    1.95440 elapsed seconds
Timing for main (dt=  6.00): time 2021-08-04_00:39:06 on domain   3:    0.15940 elapsed seconds
Timing for main (dt=  6.00): time 2021-08-04_00:39:12 on domain   3:    0.14680 elapsed seconds
Timing for main (dt=  6.00): time 2021-08-04_00:39:18 on domain   3:    0.14718 elapsed seconds
Timing for main (dt= 18.00): time 2021-08-04_00:39:18 on domain   2:    0.61458 elapsed seconds
Timing for main (dt=  6.00): time 2021-08-04_00:39:24 on domain   3:    0.15544 elapsed seconds
Timing for main (dt=  6.00): time 2021-08-04_00:39:30 on domain   3:    0.14556 elapsed seconds
Timing for main (dt=  6.00): time 2021-08-04_00:39:36 on domain   3:    0.14990 elapsed seconds
Timing for main (dt= 18.00): time 2021-08-04_00:39:36 on domain   2:    0.61607 elapsed seconds
Timing for main (dt=  6.00): time 2021-08-04_00:39:42 on domain   3:    0.15850 elapsed seconds
Timing for main (dt=  6.00): time 2021-08-04_00:39:48 on domain   3:    0.14628 elapsed seconds
Timing for main (dt=  6.00): time 2021-08-04_00:39:54 on domain   3:    0.14720 elapsed seconds
Timing for main (dt= 18.00): time 2021-08-04_00:39:54 on domain   2:    0.61485 elapsed seconds
Timing for main (dt= 54.00): time 2021-08-04_00:39:54 on domain   1:    1.91973 elapsed seconds
Timing for main (dt=  6.00): time 2021-08-04_00:40:00 on domain   3:    0.15642 elapsed seconds
Timing for main (dt=  6.00): time 2021-08-04_00:40:06 on domain   3:    0.14696 elapsed seconds
Timing for main (dt=  6.00): time 2021-08-04_00:40:12 on domain   3:    0.43486 elapsed seconds
Timing for main (dt= 18.00): time 2021-08-04_00:40:12 on domain   2:    0.90523 elapsed seconds
Timing for main (dt=  6.00): time 2021-08-04_00:40:18 on domain   3:    0.15692 elapsed seconds
Timing for main (dt=  6.00): time 2021-08-04_00:40:24 on domain   3:    0.14719 elapsed seconds
Timing for main (dt=  6.00): time 2021-08-04_00:40:30 on domain   3:    0.14756 elapsed seconds
Timing for main (dt= 18.00): time 2021-08-04_00:40:30 on domain   2:    0.61582 elapsed seconds
Timing for main (dt=  6.00): time 2021-08-04_00:40:36 on domain   3:    0.15879 elapsed seconds
Timing for main (dt=  6.00): time 2021-08-04_00:40:42 on domain   3:    0.14517 elapsed seconds
Timing for main (dt=  6.00): time 2021-08-04_00:40:48 on domain   3:    0.14894 elapsed seconds
Timing for main (dt= 18.00): time 2021-08-04_00:40:48 on domain   2:    0.61633 elapsed seconds
Timing for main (dt= 54.00): time 2021-08-04_00:40:48 on domain   1:    2.21227 elapsed seconds
Timing for main (dt=  6.00): time 2021-08-04_00:40:54 on domain   3:    0.15577 elapsed seconds
Timing for main (dt=  6.00): time 2021-08-04_00:41:00 on domain   3:    0.14592 elapsed seconds
Timing for main (dt=  6.00): time 2021-08-04_00:41:06 on domain   3:    0.15014 elapsed seconds
Timing for main (dt= 18.00): time 2021-08-04_00:41:06 on domain   2:    0.68276 elapsed seconds
Timing for main (dt=  6.00): time 2021-08-04_00:41:12 on domain   3:    0.15794 elapsed seconds
Timing for main (dt=  6.00): time 2021-08-04_00:41:18 on domain   3:    0.14427 elapsed seconds
Timing for main (dt=  6.00): time 2021-08-04_00:41:24 on domain   3:    0.15196 elapsed seconds
Timing for main (dt= 18.00): time 2021-08-04_00:41:24 on domain   2:    0.61876 elapsed seconds
Timing for main (dt=  6.00): time 2021-08-04_00:41:30 on domain   3:    0.15702 elapsed seconds
Timing for main (dt=  6.00): time 2021-08-04_00:41:36 on domain   3:    0.14609 elapsed seconds
Timing for main (dt=  6.00): time 2021-08-04_00:41:42 on domain   3:    0.15023 elapsed seconds
Timing for main (dt= 18.00): time 2021-08-04_00:41:42 on domain   2:    0.61704 elapsed seconds
Timing for main (dt= 54.00): time 2021-08-04_00:41:42 on domain   1:    1.99323 elapsed seconds
Timing for main (dt=  6.00): time 2021-08-04_00:41:48 on domain   3:    0.15729 elapsed seconds
Timing for main (dt=  6.00): time 2021-08-04_00:41:54 on domain   3:    0.14626 elapsed seconds
Timing for main (dt=  6.00): time 2021-08-04_00:42:00 on domain   3:    0.15077 elapsed seconds
Timing for main (dt= 18.00): time 2021-08-04_00:42:00 on domain   2:    0.64310 elapsed seconds
Timing for main (dt=  6.00): time 2021-08-04_00:42:06 on domain   3:    0.15834 elapsed seconds
Timing for main (dt=  6.00): time 2021-08-04_00:42:12 on domain   3:    0.14590 elapsed seconds
Timing for main (dt=  6.00): time 2021-08-04_00:42:18 on domain   3:    0.14794 elapsed seconds
Timing for main (dt= 18.00): time 2021-08-04_00:42:18 on domain   2:    0.61772 elapsed seconds
Timing for main (dt=  6.00): time 2021-08-04_00:42:24 on domain   3:    0.15608 elapsed seconds
Timing for main (dt=  6.00): time 2021-08-04_00:42:30 on domain   3:    0.14773 elapsed seconds
Timing for main (dt=  6.00): time 2021-08-04_00:42:36 on domain   3:    0.14724 elapsed seconds
Timing for main (dt= 18.00): time 2021-08-04_00:42:36 on domain   2:    0.61621 elapsed seconds
Timing for main (dt= 54.00): time 2021-08-04_00:42:36 on domain   1:    1.97579 elapsed seconds
Timing for main (dt=  6.00): time 2021-08-04_00:42:42 on domain   3:    0.15780 elapsed seconds
Timing for main (dt=  6.00): time 2021-08-04_00:42:48 on domain   3:    0.14673 elapsed seconds
Timing for main (dt=  6.00): time 2021-08-04_00:42:54 on domain   3:    0.14686 elapsed seconds
Timing for main (dt= 18.00): time 2021-08-04_00:42:54 on domain   2:    0.61320 elapsed seconds
Timing for main (dt=  6.00): time 2021-08-04_00:43:00 on domain   3:    0.15906 elapsed seconds
Timing for main (dt=  6.00): time 2021-08-04_00:43:06 on domain   3:    0.14529 elapsed seconds
Timing for main (dt=  6.00): time 2021-08-04_00:43:12 on domain   3:    0.14841 elapsed seconds
Timing for main (dt= 18.00): time 2021-08-04_00:43:12 on domain   2:    0.61496 elapsed seconds
Timing for main (dt=  6.00): time 2021-08-04_00:43:18 on domain   3:    0.15819 elapsed seconds
Timing for main (dt=  6.00): time 2021-08-04_00:43:24 on domain   3:    0.14638 elapsed seconds
Timing for main (dt=  6.00): time 2021-08-04_00:43:30 on domain   3:    0.14958 elapsed seconds
Timing for main (dt= 18.00): time 2021-08-04_00:43:30 on domain   2:    0.61782 elapsed seconds
Timing for main (dt= 54.00): time 2021-08-04_00:43:30 on domain   1:    1.92009 elapsed seconds
Timing for main (dt=  6.00): time 2021-08-04_00:43:36 on domain   3:    0.15709 elapsed seconds
Timing for main (dt=  6.00): time 2021-08-04_00:43:42 on domain   3:    0.14635 elapsed seconds
Timing for main (dt=  6.00): time 2021-08-04_00:43:48 on domain   3:    0.15029 elapsed seconds
Timing for main (dt= 18.00): time 2021-08-04_00:43:48 on domain   2:    0.62120 elapsed seconds
Timing for main (dt=  6.00): time 2021-08-04_00:43:54 on domain   3:    0.15593 elapsed seconds
Timing for main (dt=  6.00): time 2021-08-04_00:44:00 on domain   3:    0.14580 elapsed seconds
Timing for main (dt=  6.00): time 2021-08-04_00:44:06 on domain   3:    0.15475 elapsed seconds
Timing for main (dt= 18.00): time 2021-08-04_00:44:06 on domain   2:    0.61577 elapsed seconds
Timing for main (dt=  6.00): time 2021-08-04_00:44:12 on domain   3:    0.15762 elapsed seconds
Timing for main (dt=  6.00): time 2021-08-04_00:44:18 on domain   3:    0.14462 elapsed seconds
Timing for main (dt=  6.00): time 2021-08-04_00:44:24 on domain   3:    0.15136 elapsed seconds
Timing for main (dt= 18.00): time 2021-08-04_00:44:24 on domain   2:    0.61585 elapsed seconds
Timing for main (dt= 54.00): time 2021-08-04_00:44:24 on domain   1:    1.95287 elapsed seconds
Timing for main (dt=  6.00): time 2021-08-04_00:44:30 on domain   3:    0.15850 elapsed seconds
Timing for main (dt=  6.00): time 2021-08-04_00:44:36 on domain   3:    0.14606 elapsed seconds
Timing for main (dt=  6.00): time 2021-08-04_00:44:42 on domain   3:    0.14978 elapsed seconds
Timing for main (dt= 18.00): time 2021-08-04_00:44:42 on domain   2:    0.61688 elapsed seconds
Timing for main (dt=  6.00): time 2021-08-04_00:44:48 on domain   3:    0.15552 elapsed seconds
Timing for main (dt=  6.00): time 2021-08-04_00:44:54 on domain   3:    0.14764 elapsed seconds
Timing for main (dt=  6.00): time 2021-08-04_00:45:00 on domain   3:    0.14778 elapsed seconds
Timing for main (dt= 18.00): time 2021-08-04_00:45:00 on domain   2:    0.61459 elapsed seconds
Timing for main (dt=  6.00): time 2021-08-04_00:45:06 on domain   3:    0.15611 elapsed seconds
Timing for main (dt=  6.00): time 2021-08-04_00:45:12 on domain   3:    0.43917 elapsed seconds
Timing for main (dt=  6.00): time 2021-08-04_00:45:18 on domain   3:    0.15344 elapsed seconds
Timing for main (dt= 18.00): time 2021-08-04_00:45:18 on domain   2:    0.91405 elapsed seconds
Timing for main (dt= 54.00): time 2021-08-04_00:45:18 on domain   1:    2.21975 elapsed seconds
Timing for main (dt=  6.00): time 2021-08-04_00:45:24 on domain   3:    0.15578 elapsed seconds
Timing for main (dt=  6.00): time 2021-08-04_00:45:30 on domain   3:    0.14664 elapsed seconds
Timing for main (dt=  6.00): time 2021-08-04_00:45:36 on domain   3:    0.14660 elapsed seconds
Timing for main (dt= 18.00): time 2021-08-04_00:45:36 on domain   2:    0.61360 elapsed seconds
Timing for main (dt=  6.00): time 2021-08-04_00:45:42 on domain   3:    0.15670 elapsed seconds
Timing for main (dt=  6.00): time 2021-08-04_00:45:48 on domain   3:    0.14697 elapsed seconds
Timing for main (dt=  6.00): time 2021-08-04_00:45:54 on domain   3:    0.14834 elapsed seconds
Timing for main (dt= 18.00): time 2021-08-04_00:45:54 on domain   2:    0.61638 elapsed seconds
Timing for main (dt=  6.00): time 2021-08-04_00:46:00 on domain   3:    0.15576 elapsed seconds
Timing for main (dt=  6.00): time 2021-08-04_00:46:06 on domain   3:    0.14635 elapsed seconds
Timing for main (dt=  6.00): time 2021-08-04_00:46:12 on domain   3:    0.14747 elapsed seconds
Timing for main (dt= 18.00): time 2021-08-04_00:46:12 on domain   2:    0.67916 elapsed seconds
Timing for main (dt= 54.00): time 2021-08-04_00:46:12 on domain   1:    1.98303 elapsed seconds
Timing for main (dt=  6.00): time 2021-08-04_00:46:18 on domain   3:    0.15683 elapsed seconds
Timing for main (dt=  6.00): time 2021-08-04_00:46:24 on domain   3:    0.14785 elapsed seconds
Timing for main (dt=  6.00): time 2021-08-04_00:46:30 on domain   3:    0.14720 elapsed seconds
Timing for main (dt= 18.00): time 2021-08-04_00:46:30 on domain   2:    0.61501 elapsed seconds
Timing for main (dt=  6.00): time 2021-08-04_00:46:36 on domain   3:    0.15599 elapsed seconds
Timing for main (dt=  6.00): time 2021-08-04_00:46:42 on domain   3:    0.14675 elapsed seconds
Timing for main (dt=  6.00): time 2021-08-04_00:46:48 on domain   3:    0.14972 elapsed seconds
Timing for main (dt= 18.00): time 2021-08-04_00:46:48 on domain   2:    0.61692 elapsed seconds
Timing for main (dt=  6.00): time 2021-08-04_00:46:54 on domain   3:    0.15666 elapsed seconds
Timing for main (dt=  6.00): time 2021-08-04_00:47:00 on domain   3:    0.14657 elapsed seconds
Timing for main (dt=  6.00): time 2021-08-04_00:47:06 on domain   3:    0.15034 elapsed seconds
Timing for main (dt= 18.00): time 2021-08-04_00:47:06 on domain   2:    0.61688 elapsed seconds
Timing for main (dt= 54.00): time 2021-08-04_00:47:06 on domain   1:    1.92258 elapsed seconds
Timing for main (dt=  6.00): time 2021-08-04_00:47:12 on domain   3:    0.15633 elapsed seconds
Timing for main (dt=  6.00): time 2021-08-04_00:47:18 on domain   3:    0.14548 elapsed seconds
Timing for main (dt=  6.00): time 2021-08-04_00:47:24 on domain   3:    0.15097 elapsed seconds
Timing for main (dt= 18.00): time 2021-08-04_00:47:24 on domain   2:    0.61508 elapsed seconds
Timing for main (dt=  6.00): time 2021-08-04_00:47:30 on domain   3:    0.15472 elapsed seconds
Timing for main (dt=  6.00): time 2021-08-04_00:47:36 on domain   3:    0.14583 elapsed seconds
Timing for main (dt=  6.00): time 2021-08-04_00:47:42 on domain   3:    0.15025 elapsed seconds
[...]
Timing for main (dt= 18.00): time 2021-08-05_23:46:30 on domain   2:    0.88057 elapsed seconds
Timing for main (dt=  6.00): time 2021-08-05_23:46:36 on domain   3:    0.15412 elapsed seconds
Timing for main (dt=  6.00): time 2021-08-05_23:46:42 on domain   3:    0.14517 elapsed seconds
Timing for main (dt=  6.00): time 2021-08-05_23:46:48 on domain   3:    0.14877 elapsed seconds
Timing for main (dt= 18.00): time 2021-08-05_23:46:48 on domain   2:    0.61230 elapsed seconds
Timing for main (dt= 54.00): time 2021-08-05_23:46:48 on domain   1:    2.18125 elapsed seconds
Timing for main (dt=  6.00): time 2021-08-05_23:46:54 on domain   3:    0.15334 elapsed seconds
Timing for main (dt=  6.00): time 2021-08-05_23:47:00 on domain   3:    0.14551 elapsed seconds
Timing for main (dt=  6.00): time 2021-08-05_23:47:06 on domain   3:    0.14853 elapsed seconds
Timing for main (dt= 18.00): time 2021-08-05_23:47:06 on domain   2:    0.61484 elapsed seconds
Timing for main (dt=  6.00): time 2021-08-05_23:47:12 on domain   3:    0.15599 elapsed seconds
Timing for main (dt=  6.00): time 2021-08-05_23:47:18 on domain   3:    0.14666 elapsed seconds
Timing for main (dt=  6.00): time 2021-08-05_23:47:24 on domain   3:    0.14965 elapsed seconds
Timing for main (dt= 18.00): time 2021-08-05_23:47:24 on domain   2:    0.61617 elapsed seconds
Timing for main (dt=  6.00): time 2021-08-05_23:47:30 on domain   3:    0.15526 elapsed seconds
Timing for main (dt=  6.00): time 2021-08-05_23:47:36 on domain   3:    0.14565 elapsed seconds
Timing for main (dt=  6.00): time 2021-08-05_23:47:42 on domain   3:    0.14994 elapsed seconds
Timing for main (dt= 18.00): time 2021-08-05_23:47:42 on domain   2:    0.61610 elapsed seconds
Timing for main (dt= 54.00): time 2021-08-05_23:47:42 on domain   1:    1.92238 elapsed seconds
Timing for main (dt=  6.00): time 2021-08-05_23:47:48 on domain   3:    0.15555 elapsed seconds
Timing for main (dt=  6.00): time 2021-08-05_23:47:54 on domain   3:    0.14558 elapsed seconds
Timing for main (dt=  6.00): time 2021-08-05_23:48:00 on domain   3:    0.14812 elapsed seconds
Timing for main (dt= 18.00): time 2021-08-05_23:48:00 on domain   2:    0.61290 elapsed seconds
Timing for main (dt=  6.00): time 2021-08-05_23:48:06 on domain   3:    0.15541 elapsed seconds
Timing for main (dt=  6.00): time 2021-08-05_23:48:12 on domain   3:    0.14633 elapsed seconds
Timing for main (dt=  6.00): time 2021-08-05_23:48:18 on domain   3:    0.14745 elapsed seconds
Timing for main (dt= 18.00): time 2021-08-05_23:48:18 on domain   2:    0.61614 elapsed seconds
Timing for main (dt=  6.00): time 2021-08-05_23:48:24 on domain   3:    0.15503 elapsed seconds
Timing for main (dt=  6.00): time 2021-08-05_23:48:30 on domain   3:    0.14608 elapsed seconds
Timing for main (dt=  6.00): time 2021-08-05_23:48:36 on domain   3:    0.14796 elapsed seconds
Timing for main (dt= 18.00): time 2021-08-05_23:48:36 on domain   2:    0.61607 elapsed seconds
Timing for main (dt= 54.00): time 2021-08-05_23:48:36 on domain   1:    1.91897 elapsed seconds
Timing for main (dt=  6.00): time 2021-08-05_23:48:42 on domain   3:    0.15430 elapsed seconds
Timing for main (dt=  6.00): time 2021-08-05_23:48:48 on domain   3:    0.14628 elapsed seconds
Timing for main (dt=  6.00): time 2021-08-05_23:48:54 on domain   3:    0.14774 elapsed seconds
Timing for main (dt= 18.00): time 2021-08-05_23:48:54 on domain   2:    0.61567 elapsed seconds
Timing for main (dt=  6.00): time 2021-08-05_23:49:00 on domain   3:    0.15537 elapsed seconds
Timing for main (dt=  6.00): time 2021-08-05_23:49:06 on domain   3:    0.14478 elapsed seconds
Timing for main (dt=  6.00): time 2021-08-05_23:49:12 on domain   3:    0.14967 elapsed seconds
Timing for main (dt= 18.00): time 2021-08-05_23:49:12 on domain   2:    0.67871 elapsed seconds
Timing for main (dt=  6.00): time 2021-08-05_23:49:18 on domain   3:    0.15531 elapsed seconds
Timing for main (dt=  6.00): time 2021-08-05_23:49:24 on domain   3:    0.14556 elapsed seconds
Timing for main (dt=  6.00): time 2021-08-05_23:49:30 on domain   3:    0.14966 elapsed seconds
Timing for main (dt= 18.00): time 2021-08-05_23:49:30 on domain   2:    0.61699 elapsed seconds
Timing for main (dt= 54.00): time 2021-08-05_23:49:30 on domain   1:    1.98428 elapsed seconds
Timing for main (dt=  6.00): time 2021-08-05_23:49:36 on domain   3:    0.15420 elapsed seconds
Timing for main (dt=  6.00): time 2021-08-05_23:49:42 on domain   3:    0.14630 elapsed seconds
Timing for main (dt=  6.00): time 2021-08-05_23:49:48 on domain   3:    0.14785 elapsed seconds
Timing for main (dt= 18.00): time 2021-08-05_23:49:48 on domain   2:    0.61455 elapsed seconds
Timing for main (dt=  6.00): time 2021-08-05_23:49:54 on domain   3:    0.15585 elapsed seconds
Timing for main (dt=  6.00): time 2021-08-05_23:50:00 on domain   3:    0.14659 elapsed seconds
Timing for main (dt=  6.00): time 2021-08-05_23:50:06 on domain   3:    0.14906 elapsed seconds
Timing for main (dt= 18.00): time 2021-08-05_23:50:06 on domain   2:    0.61444 elapsed seconds
Timing for main (dt=  6.00): time 2021-08-05_23:50:12 on domain   3:    0.15513 elapsed seconds
Timing for main (dt=  6.00): time 2021-08-05_23:50:18 on domain   3:    0.14524 elapsed seconds
Timing for main (dt=  6.00): time 2021-08-05_23:50:24 on domain   3:    0.14856 elapsed seconds
Timing for main (dt= 18.00): time 2021-08-05_23:50:24 on domain   2:    0.61713 elapsed seconds
Timing for main (dt= 54.00): time 2021-08-05_23:50:24 on domain   1:    1.94802 elapsed seconds
Timing for main (dt=  6.00): time 2021-08-05_23:50:30 on domain   3:    0.15498 elapsed seconds
Timing for main (dt=  6.00): time 2021-08-05_23:50:36 on domain   3:    0.14630 elapsed seconds
Timing for main (dt=  6.00): time 2021-08-05_23:50:42 on domain   3:    0.14723 elapsed seconds
Timing for main (dt= 18.00): time 2021-08-05_23:50:42 on domain   2:    0.61122 elapsed seconds
Timing for main (dt=  6.00): time 2021-08-05_23:50:48 on domain   3:    0.15475 elapsed seconds
Timing for main (dt=  6.00): time 2021-08-05_23:50:54 on domain   3:    0.14546 elapsed seconds
Timing for main (dt=  6.00): time 2021-08-05_23:51:00 on domain   3:    0.15301 elapsed seconds
Timing for main (dt= 18.00): time 2021-08-05_23:51:00 on domain   2:    0.61769 elapsed seconds
Timing for main (dt=  6.00): time 2021-08-05_23:51:06 on domain   3:    0.15398 elapsed seconds
Timing for main (dt=  6.00): time 2021-08-05_23:51:12 on domain   3:    0.14658 elapsed seconds
Timing for main (dt=  6.00): time 2021-08-05_23:51:18 on domain   3:    0.14309 elapsed seconds
Timing for main (dt= 18.00): time 2021-08-05_23:51:18 on domain   2:    0.61361 elapsed seconds
Timing for main (dt= 54.00): time 2021-08-05_23:51:18 on domain   1:    1.92089 elapsed seconds
Timing for main (dt=  6.00): time 2021-08-05_23:51:24 on domain   3:    0.15548 elapsed seconds
Timing for main (dt=  6.00): time 2021-08-05_23:51:30 on domain   3:    0.41937 elapsed seconds
Timing for main (dt=  6.00): time 2021-08-05_23:51:36 on domain   3:    0.14688 elapsed seconds
Timing for main (dt= 18.00): time 2021-08-05_23:51:36 on domain   2:    0.88517 elapsed seconds
Timing for main (dt=  6.00): time 2021-08-05_23:51:42 on domain   3:    0.15436 elapsed seconds
Timing for main (dt=  6.00): time 2021-08-05_23:51:48 on domain   3:    0.14624 elapsed seconds
Timing for main (dt=  6.00): time 2021-08-05_23:51:54 on domain   3:    0.15010 elapsed seconds
Timing for main (dt= 18.00): time 2021-08-05_23:51:54 on domain   2:    0.61642 elapsed seconds
Timing for main (dt=  6.00): time 2021-08-05_23:52:00 on domain   3:    0.15419 elapsed seconds
Timing for main (dt=  6.00): time 2021-08-05_23:52:06 on domain   3:    0.14760 elapsed seconds
Timing for main (dt=  6.00): time 2021-08-05_23:52:12 on domain   3:    0.14660 elapsed seconds
Timing for main (dt= 18.00): time 2021-08-05_23:52:12 on domain   2:    0.61510 elapsed seconds
Timing for main (dt= 54.00): time 2021-08-05_23:52:12 on domain   1:    2.19101 elapsed seconds
Timing for main (dt=  6.00): time 2021-08-05_23:52:18 on domain   3:    0.15587 elapsed seconds
Timing for main (dt=  6.00): time 2021-08-05_23:52:24 on domain   3:    0.14611 elapsed seconds
Timing for main (dt=  6.00): time 2021-08-05_23:52:30 on domain   3:    0.14824 elapsed seconds
Timing for main (dt= 18.00): time 2021-08-05_23:52:30 on domain   2:    0.61397 elapsed seconds
Timing for main (dt=  6.00): time 2021-08-05_23:52:36 on domain   3:    0.15411 elapsed seconds
Timing for main (dt=  6.00): time 2021-08-05_23:52:42 on domain   3:    0.14569 elapsed seconds
Timing for main (dt=  6.00): time 2021-08-05_23:52:48 on domain   3:    0.14774 elapsed seconds
Timing for main (dt= 18.00): time 2021-08-05_23:52:48 on domain   2:    0.61625 elapsed seconds
Timing for main (dt=  6.00): time 2021-08-05_23:52:54 on domain   3:    0.15554 elapsed seconds
Timing for main (dt=  6.00): time 2021-08-05_23:53:00 on domain   3:    0.14583 elapsed seconds
Timing for main (dt=  6.00): time 2021-08-05_23:53:06 on domain   3:    0.14949 elapsed seconds
Timing for main (dt= 18.00): time 2021-08-05_23:53:06 on domain   2:    0.61494 elapsed seconds
Timing for main (dt= 54.00): time 2021-08-05_23:53:06 on domain   1:    1.91871 elapsed seconds
Timing for main (dt=  6.00): time 2021-08-05_23:53:12 on domain   3:    0.15480 elapsed seconds
Timing for main (dt=  6.00): time 2021-08-05_23:53:18 on domain   3:    0.14703 elapsed seconds
Timing for main (dt=  6.00): time 2021-08-05_23:53:24 on domain   3:    0.14938 elapsed seconds
Timing for main (dt= 18.00): time 2021-08-05_23:53:24 on domain   2:    0.61563 elapsed seconds
Timing for main (dt=  6.00): time 2021-08-05_23:53:30 on domain   3:    0.15666 elapsed seconds
Timing for main (dt=  6.00): time 2021-08-05_23:53:36 on domain   3:    0.14608 elapsed seconds
Timing for main (dt=  6.00): time 2021-08-05_23:53:42 on domain   3:    0.15035 elapsed seconds
Timing for main (dt= 18.00): time 2021-08-05_23:53:42 on domain   2:    0.61755 elapsed seconds
Timing for main (dt=  6.00): time 2021-08-05_23:53:48 on domain   3:    0.15451 elapsed seconds
Timing for main (dt=  6.00): time 2021-08-05_23:53:54 on domain   3:    0.14478 elapsed seconds
Timing for main (dt=  6.00): time 2021-08-05_23:54:00 on domain   3:    0.14975 elapsed seconds
Timing for main (dt= 18.00): time 2021-08-05_23:54:00 on domain   2:    0.61529 elapsed seconds
Timing for main (dt= 54.00): time 2021-08-05_23:54:00 on domain   1:    1.92316 elapsed seconds
Timing for main (dt=  6.00): time 2021-08-05_23:54:06 on domain   3:    0.15656 elapsed seconds
Timing for main (dt=  6.00): time 2021-08-05_23:54:12 on domain   3:    0.14705 elapsed seconds
Timing for main (dt=  6.00): time 2021-08-05_23:54:18 on domain   3:    0.14735 elapsed seconds
Timing for main (dt= 18.00): time 2021-08-05_23:54:18 on domain   2:    0.67712 elapsed seconds
Timing for main (dt=  6.00): time 2021-08-05_23:54:24 on domain   3:    0.15592 elapsed seconds
Timing for main (dt=  6.00): time 2021-08-05_23:54:30 on domain   3:    0.14515 elapsed seconds
Timing for main (dt=  6.00): time 2021-08-05_23:54:36 on domain   3:    0.15103 elapsed seconds
Timing for main (dt= 18.00): time 2021-08-05_23:54:36 on domain   2:    0.61863 elapsed seconds
Timing for main (dt=  6.00): time 2021-08-05_23:54:42 on domain   3:    0.15515 elapsed seconds
Timing for main (dt=  6.00): time 2021-08-05_23:54:48 on domain   3:    0.14684 elapsed seconds
Timing for main (dt=  6.00): time 2021-08-05_23:54:54 on domain   3:    0.14763 elapsed seconds
Timing for main (dt= 18.00): time 2021-08-05_23:54:54 on domain   2:    0.61460 elapsed seconds
Timing for main (dt= 54.00): time 2021-08-05_23:54:54 on domain   1:    1.98393 elapsed seconds
Timing for main (dt=  6.00): time 2021-08-05_23:55:00 on domain   3:    0.15540 elapsed seconds
Timing for main (dt=  6.00): time 2021-08-05_23:55:06 on domain   3:    0.14498 elapsed seconds
Timing for main (dt=  6.00): time 2021-08-05_23:55:12 on domain   3:    0.14743 elapsed seconds
Timing for main (dt= 18.00): time 2021-08-05_23:55:12 on domain   2:    0.61433 elapsed seconds
Timing for main (dt=  6.00): time 2021-08-05_23:55:18 on domain   3:    0.15643 elapsed seconds
Timing for main (dt=  6.00): time 2021-08-05_23:55:24 on domain   3:    0.14552 elapsed seconds
Timing for main (dt=  6.00): time 2021-08-05_23:55:30 on domain   3:    0.15011 elapsed seconds
Timing for main (dt= 18.00): time 2021-08-05_23:55:30 on domain   2:    0.61779 elapsed seconds
Timing for main (dt=  6.00): time 2021-08-05_23:55:36 on domain   3:    0.15565 elapsed seconds
Timing for main (dt=  6.00): time 2021-08-05_23:55:42 on domain   3:    0.14679 elapsed seconds
Timing for main (dt=  6.00): time 2021-08-05_23:55:48 on domain   3:    0.14935 elapsed seconds
Timing for main (dt= 18.00): time 2021-08-05_23:55:48 on domain   2:    0.61490 elapsed seconds
Timing for main (dt= 54.00): time 2021-08-05_23:55:48 on domain   1:    1.94877 elapsed seconds
Timing for main (dt=  6.00): time 2021-08-05_23:55:54 on domain   3:    0.15473 elapsed seconds
Timing for main (dt=  6.00): time 2021-08-05_23:56:00 on domain   3:    0.14499 elapsed seconds
Timing for main (dt=  6.00): time 2021-08-05_23:56:06 on domain   3:    0.14793 elapsed seconds
Timing for main (dt= 18.00): time 2021-08-05_23:56:06 on domain   2:    0.61381 elapsed seconds
Timing for main (dt=  6.00): time 2021-08-05_23:56:12 on domain   3:    0.15931 elapsed seconds
Timing for main (dt=  6.00): time 2021-08-05_23:56:18 on domain   3:    0.14569 elapsed seconds
Timing for main (dt=  6.00): time 2021-08-05_23:56:24 on domain   3:    0.14777 elapsed seconds
Timing for main (dt= 18.00): time 2021-08-05_23:56:24 on domain   2:    0.62018 elapsed seconds
Timing for main (dt=  6.00): time 2021-08-05_23:56:30 on domain   3:    0.41814 elapsed seconds
Timing for main (dt=  6.00): time 2021-08-05_23:56:36 on domain   3:    0.16038 elapsed seconds
Timing for main (dt=  6.00): time 2021-08-05_23:56:42 on domain   3:    0.15364 elapsed seconds
Timing for main (dt= 18.00): time 2021-08-05_23:56:42 on domain   2:    0.89969 elapsed seconds
Timing for main (dt= 54.00): time 2021-08-05_23:56:42 on domain   1:    2.20730 elapsed seconds
Timing for main (dt=  6.00): time 2021-08-05_23:56:48 on domain   3:    0.15657 elapsed seconds
Timing for main (dt=  6.00): time 2021-08-05_23:56:54 on domain   3:    0.14555 elapsed seconds
Timing for main (dt=  6.00): time 2021-08-05_23:57:00 on domain   3:    0.14615 elapsed seconds
Timing for main (dt= 18.00): time 2021-08-05_23:57:00 on domain   2:    0.61313 elapsed seconds
Timing for main (dt=  6.00): time 2021-08-05_23:57:06 on domain   3:    0.15468 elapsed seconds
Timing for main (dt=  6.00): time 2021-08-05_23:57:12 on domain   3:    0.14500 elapsed seconds
Timing for main (dt=  6.00): time 2021-08-05_23:57:18 on domain   3:    0.15201 elapsed seconds
Timing for main (dt= 18.00): time 2021-08-05_23:57:18 on domain   2:    0.61688 elapsed seconds
Timing for main (dt=  6.00): time 2021-08-05_23:57:24 on domain   3:    0.15574 elapsed seconds
Timing for main (dt=  6.00): time 2021-08-05_23:57:30 on domain   3:    0.14487 elapsed seconds
Timing for main (dt=  6.00): time 2021-08-05_23:57:36 on domain   3:    0.15197 elapsed seconds
Timing for main (dt= 18.00): time 2021-08-05_23:57:36 on domain   2:    0.61660 elapsed seconds
Timing for main (dt= 54.00): time 2021-08-05_23:57:36 on domain   1:    1.92017 elapsed seconds
Timing for main (dt=  6.00): time 2021-08-05_23:57:42 on domain   3:    0.15493 elapsed seconds
Timing for main (dt=  6.00): time 2021-08-05_23:57:48 on domain   3:    0.14528 elapsed seconds
Timing for main (dt=  6.00): time 2021-08-05_23:57:54 on domain   3:    0.15464 elapsed seconds
Timing for main (dt= 18.00): time 2021-08-05_23:57:54 on domain   2:    0.62037 elapsed seconds
Timing for main (dt=  6.00): time 2021-08-05_23:58:00 on domain   3:    0.15412 elapsed seconds
Timing for main (dt=  6.00): time 2021-08-05_23:58:06 on domain   3:    0.14665 elapsed seconds
Timing for main (dt=  6.00): time 2021-08-05_23:58:12 on domain   3:    0.15113 elapsed seconds
Timing for main (dt= 18.00): time 2021-08-05_23:58:12 on domain   2:    0.61645 elapsed seconds
Timing for main (dt=  6.00): time 2021-08-05_23:58:18 on domain   3:    0.15428 elapsed seconds
Timing for main (dt=  6.00): time 2021-08-05_23:58:24 on domain   3:    0.14648 elapsed seconds
Timing for main (dt=  6.00): time 2021-08-05_23:58:30 on domain   3:    0.15051 elapsed seconds
Timing for main (dt= 18.00): time 2021-08-05_23:58:30 on domain   2:    0.61892 elapsed seconds
Timing for main (dt= 54.00): time 2021-08-05_23:58:30 on domain   1:    1.92982 elapsed seconds
Timing for main (dt=  5.00): time 2021-08-05_23:58:35 on domain   3:    0.15487 elapsed seconds
Timing for main (dt=  5.00): time 2021-08-05_23:58:40 on domain   3:    0.14501 elapsed seconds
Timing for main (dt=  5.00): time 2021-08-05_23:58:45 on domain   3:    0.14704 elapsed seconds
Timing for main (dt= 15.00): time 2021-08-05_23:58:45 on domain   2:    0.61253 elapsed seconds
Timing for main (dt=  5.00): time 2021-08-05_23:58:50 on domain   3:    0.15564 elapsed seconds
Timing for main (dt=  5.00): time 2021-08-05_23:58:55 on domain   3:    0.14673 elapsed seconds
Timing for main (dt=  5.00): time 2021-08-05_23:59:00 on domain   3:    0.15218 elapsed seconds
Timing for main (dt= 15.00): time 2021-08-05_23:59:00 on domain   2:    0.62099 elapsed seconds
Timing for main (dt=  5.00): time 2021-08-05_23:59:05 on domain   3:    0.15478 elapsed seconds
Timing for main (dt=  5.00): time 2021-08-05_23:59:10 on domain   3:    0.14609 elapsed seconds
Timing for main (dt=  5.00): time 2021-08-05_23:59:15 on domain   3:    0.14874 elapsed seconds
Timing for main (dt= 15.00): time 2021-08-05_23:59:15 on domain   2:    0.67490 elapsed seconds
Timing for main (dt= 45.00): time 2021-08-05_23:59:15 on domain   1:    1.98243 elapsed seconds
Timing for main (dt=  5.00): time 2021-08-05_23:59:20 on domain   3:    0.15694 elapsed seconds
Timing for main (dt=  5.00): time 2021-08-05_23:59:25 on domain   3:    0.14589 elapsed seconds
Timing for main (dt=  5.00): time 2021-08-05_23:59:30 on domain   3:    0.15154 elapsed seconds
Timing for main (dt= 15.00): time 2021-08-05_23:59:30 on domain   2:    0.61717 elapsed seconds
Timing for main (dt=  5.00): time 2021-08-05_23:59:35 on domain   3:    0.15506 elapsed seconds
Timing for main (dt=  5.00): time 2021-08-05_23:59:40 on domain   3:    0.14709 elapsed seconds
Timing for main (dt=  5.00): time 2021-08-05_23:59:45 on domain   3:    0.14942 elapsed seconds
Timing for main (dt= 15.00): time 2021-08-05_23:59:45 on domain   2:    0.61810 elapsed seconds
Timing for main (dt=  5.00): time 2021-08-05_23:59:50 on domain   3:    0.15490 elapsed seconds
Timing for main (dt=  5.00): time 2021-08-05_23:59:55 on domain   3:    0.14540 elapsed seconds
Timing for main (dt=  5.00): time 2021-08-06_00:00:00 on domain   3:    0.15277 elapsed seconds
Timing for Writing wrfout_d03_2021-08-06_00:00:00 for domain        3:    0.89320 elapsed seconds
Timing for Writing auxhist2_d03_2021-08-06_00:00:00 for domain        3:    0.00002 elapsed seconds
Timing for Writing auxhist23_d03_2021-08-06_00:00:00 for domain        3:    9.90598 elapsed seconds
Timing for main (dt= 15.00): time 2021-08-06_00:00:00 on domain   2:   11.49131 elapsed seconds
Timing for main (dt= 45.00): time 2021-08-06_00:00:00 on domain   1:   13.89756 elapsed seconds
Timing for Writing auxhist23_d01_2021-08-06_00:00:00 for domain        1:    0.10153 elapsed seconds
Timing for Writing restart for domain        1:    1.25929 elapsed seconds
Timing for Writing restart for domain        2:    1.47209 elapsed seconds
Timing for Writing restart for domain        3:    2.48070 elapsed seconds
d01 2021-08-06_00:00:00 wrf: SUCCESS COMPLETE WRF
