Timing for Writing wrfout_d01_2021-08-04_00:00:00 for domain        1:    0.47585 elapsed seconds
