d01 2021-08-04_00:00:00  alloc_space_field: domain            2 ,                5403068  bytes allocated
Timing for Writing auxhist23_d01_2021-08-06_00:00:00 for!!domain        1:    0.10153 elapsed seconds
